! Generated by BlenderFDS 6.0.0 on Blender 4.4.0
! Date: Thu, 15 May 2025, 15:32:19
! File: /Users/kristian/Documents/NextVis/25_Haspel/Blender/haspel.blend

--- Case from Blender Scene: <haspel> | View Layer: <View Layer>

&HEAD CHID='haspel' TITLE='Haspel' /
&TIME T_END=1200.0 /
&MISC /
&REAC FUEL='N-HEPTANE' FORMULA='C7H16' CO_YIELD=0.008 SOOT_YIELD=0.015
      HEAT_OF_COMBUSTION=20000.0 /
&DUMP /

--- Boundary conditions from Blender Materials

&SURF ID='Fire' RGB=204,3,6 HRRPUA=50 RAMP_Q='ramp_fire' /

--- Computational domain | MPI Processes: 54 | MESH Qty: 54 | Cell Qty: 6750000

-- MPI Process: <0> | MESH Qty: 1 | Cell Qty: 125000
Cell Qty: 125000 | Size: 0.100·0.100·0.100m | Aspect: 1.0 | Poisson: Yes
&MESH ID='Domain_s0_i0_j0_k0' IJK=50,50,50
      XB=11.250,16.250,10.750,15.750,0.000,5.000 MPI_PROCESS=0 /

-- MPI Process: <1> | MESH Qty: 1 | Cell Qty: 125000
Cell Qty: 125000 | Size: 0.100·0.100·0.100m | Aspect: 1.0 | Poisson: Yes
&MESH ID='Domain_s1_i0_j0_k0' IJK=50,50,50
      XB=11.250,16.250,15.750,20.750,0.000,5.000 MPI_PROCESS=1 /

-- MPI Process: <2> | MESH Qty: 1 | Cell Qty: 125000
Cell Qty: 125000 | Size: 0.100·0.100·0.100m | Aspect: 1.0 | Poisson: Yes
&MESH ID='Domain_s2_i0_j0_k0' IJK=50,50,50
      XB=11.250,16.250,20.750,25.750,0.000,5.000 MPI_PROCESS=2 /

-- MPI Process: <3> | MESH Qty: 1 | Cell Qty: 125000
Cell Qty: 125000 | Size: 0.100·0.100·0.100m | Aspect: 1.0 | Poisson: Yes
&MESH ID='Domain_s3_i0_j0_k0' IJK=50,50,50
      XB=11.250,16.250,25.750,30.750,0.000,5.000 MPI_PROCESS=3 /

-- MPI Process: <4> | MESH Qty: 1 | Cell Qty: 125000
Cell Qty: 125000 | Size: 0.100·0.100·0.100m | Aspect: 1.0 | Poisson: Yes
&MESH ID='Domain_s4_i0_j0_k0' IJK=50,50,50
      XB=11.250,16.250,30.750,35.750,0.000,5.000 MPI_PROCESS=4 /

-- MPI Process: <5> | MESH Qty: 1 | Cell Qty: 125000
Cell Qty: 125000 | Size: 0.100·0.100·0.100m | Aspect: 1.0 | Poisson: Yes
&MESH ID='Domain_s5_i0_j0_k0' IJK=50,50,50
      XB=11.250,16.250,35.750,40.750,0.000,5.000 MPI_PROCESS=5 /

-- MPI Process: <6> | MESH Qty: 1 | Cell Qty: 125000
Cell Qty: 125000 | Size: 0.100·0.100·0.100m | Aspect: 1.0 | Poisson: Yes
&MESH ID='Domain_s6_i0_j0_k0' IJK=50,50,50
      XB=16.250,21.250,10.750,15.750,0.000,5.000 MPI_PROCESS=6 /

-- MPI Process: <7> | MESH Qty: 1 | Cell Qty: 125000
Cell Qty: 125000 | Size: 0.100·0.100·0.100m | Aspect: 1.0 | Poisson: Yes
&MESH ID='Domain_s7_i0_j0_k0' IJK=50,50,50
      XB=16.250,21.250,15.750,20.750,0.000,5.000 MPI_PROCESS=7 /

-- MPI Process: <8> | MESH Qty: 1 | Cell Qty: 125000
Cell Qty: 125000 | Size: 0.100·0.100·0.100m | Aspect: 1.0 | Poisson: Yes
&MESH ID='Domain_s8_i0_j0_k0' IJK=50,50,50
      XB=16.250,21.250,20.750,25.750,0.000,5.000 MPI_PROCESS=8 /

-- MPI Process: <9> | MESH Qty: 1 | Cell Qty: 125000
Cell Qty: 125000 | Size: 0.100·0.100·0.100m | Aspect: 1.0 | Poisson: Yes
&MESH ID='Domain_s9_i0_j0_k0' IJK=50,50,50
      XB=16.250,21.250,25.750,30.750,0.000,5.000 MPI_PROCESS=9 /

-- MPI Process: <10> | MESH Qty: 1 | Cell Qty: 125000
Cell Qty: 125000 | Size: 0.100·0.100·0.100m | Aspect: 1.0 | Poisson: Yes
&MESH ID='Domain_s10_i0_j0_k0' IJK=50,50,50
      XB=16.250,21.250,30.750,35.750,0.000,5.000 MPI_PROCESS=10 /

-- MPI Process: <11> | MESH Qty: 1 | Cell Qty: 125000
Cell Qty: 125000 | Size: 0.100·0.100·0.100m | Aspect: 1.0 | Poisson: Yes
&MESH ID='Domain_s11_i0_j0_k0' IJK=50,50,50
      XB=16.250,21.250,35.750,40.750,0.000,5.000 MPI_PROCESS=11 /

-- MPI Process: <12> | MESH Qty: 1 | Cell Qty: 125000
Cell Qty: 125000 | Size: 0.100·0.100·0.100m | Aspect: 1.0 | Poisson: Yes
&MESH ID='Domain_s12_i0_j0_k0' IJK=50,50,50
      XB=21.250,26.250,10.750,15.750,0.000,5.000 MPI_PROCESS=12 /

-- MPI Process: <13> | MESH Qty: 1 | Cell Qty: 125000
Cell Qty: 125000 | Size: 0.100·0.100·0.100m | Aspect: 1.0 | Poisson: Yes
&MESH ID='Domain_s13_i0_j0_k0' IJK=50,50,50
      XB=21.250,26.250,15.750,20.750,0.000,5.000 MPI_PROCESS=13 /

-- MPI Process: <14> | MESH Qty: 1 | Cell Qty: 125000
Cell Qty: 125000 | Size: 0.100·0.100·0.100m | Aspect: 1.0 | Poisson: Yes
&MESH ID='Domain_s14_i0_j0_k0' IJK=50,50,50
      XB=21.250,26.250,20.750,25.750,0.000,5.000 MPI_PROCESS=14 /

-- MPI Process: <15> | MESH Qty: 1 | Cell Qty: 125000
Cell Qty: 125000 | Size: 0.100·0.100·0.100m | Aspect: 1.0 | Poisson: Yes
&MESH ID='Domain_s15_i0_j0_k0' IJK=50,50,50
      XB=21.250,26.250,25.750,30.750,0.000,5.000 MPI_PROCESS=15 /

-- MPI Process: <16> | MESH Qty: 1 | Cell Qty: 125000
Cell Qty: 125000 | Size: 0.100·0.100·0.100m | Aspect: 1.0 | Poisson: Yes
&MESH ID='Domain_s16_i0_j0_k0' IJK=50,50,50
      XB=21.250,26.250,30.750,35.750,0.000,5.000 MPI_PROCESS=16 /

-- MPI Process: <17> | MESH Qty: 1 | Cell Qty: 125000
Cell Qty: 125000 | Size: 0.100·0.100·0.100m | Aspect: 1.0 | Poisson: Yes
&MESH ID='Domain_s17_i0_j0_k0' IJK=50,50,50
      XB=21.250,26.250,35.750,40.750,0.000,5.000 MPI_PROCESS=17 /

-- MPI Process: <18> | MESH Qty: 1 | Cell Qty: 125000
Cell Qty: 125000 | Size: 0.100·0.100·0.100m | Aspect: 1.0 | Poisson: Yes
&MESH ID='Domain_s18_i0_j0_k0' IJK=50,50,50
      XB=26.250,31.250,10.750,15.750,0.000,5.000 MPI_PROCESS=18 /

-- MPI Process: <19> | MESH Qty: 1 | Cell Qty: 125000
Cell Qty: 125000 | Size: 0.100·0.100·0.100m | Aspect: 1.0 | Poisson: Yes
&MESH ID='Domain_s19_i0_j0_k0' IJK=50,50,50
      XB=26.250,31.250,15.750,20.750,0.000,5.000 MPI_PROCESS=19 /

-- MPI Process: <20> | MESH Qty: 1 | Cell Qty: 125000
Cell Qty: 125000 | Size: 0.100·0.100·0.100m | Aspect: 1.0 | Poisson: Yes
&MESH ID='Domain_s20_i0_j0_k0' IJK=50,50,50
      XB=26.250,31.250,20.750,25.750,0.000,5.000 MPI_PROCESS=20 /

-- MPI Process: <21> | MESH Qty: 1 | Cell Qty: 125000
Cell Qty: 125000 | Size: 0.100·0.100·0.100m | Aspect: 1.0 | Poisson: Yes
&MESH ID='Domain_s21_i0_j0_k0' IJK=50,50,50
      XB=26.250,31.250,25.750,30.750,0.000,5.000 MPI_PROCESS=21 /

-- MPI Process: <22> | MESH Qty: 1 | Cell Qty: 125000
Cell Qty: 125000 | Size: 0.100·0.100·0.100m | Aspect: 1.0 | Poisson: Yes
&MESH ID='Domain_s22_i0_j0_k0' IJK=50,50,50
      XB=26.250,31.250,30.750,35.750,0.000,5.000 MPI_PROCESS=22 /

-- MPI Process: <23> | MESH Qty: 1 | Cell Qty: 125000
Cell Qty: 125000 | Size: 0.100·0.100·0.100m | Aspect: 1.0 | Poisson: Yes
&MESH ID='Domain_s23_i0_j0_k0' IJK=50,50,50
      XB=26.250,31.250,35.750,40.750,0.000,5.000 MPI_PROCESS=23 /

-- MPI Process: <24> | MESH Qty: 1 | Cell Qty: 125000
Cell Qty: 125000 | Size: 0.100·0.100·0.100m | Aspect: 1.0 | Poisson: Yes
&MESH ID='Domain_s24_i0_j0_k0' IJK=50,50,50
      XB=31.250,36.250,10.750,15.750,0.000,5.000 MPI_PROCESS=24 /

-- MPI Process: <25> | MESH Qty: 1 | Cell Qty: 125000
Cell Qty: 125000 | Size: 0.100·0.100·0.100m | Aspect: 1.0 | Poisson: Yes
&MESH ID='Domain_s25_i0_j0_k0' IJK=50,50,50
      XB=31.250,36.250,15.750,20.750,0.000,5.000 MPI_PROCESS=25 /

-- MPI Process: <26> | MESH Qty: 1 | Cell Qty: 125000
Cell Qty: 125000 | Size: 0.100·0.100·0.100m | Aspect: 1.0 | Poisson: Yes
&MESH ID='Domain_s26_i0_j0_k0' IJK=50,50,50
      XB=31.250,36.250,20.750,25.750,0.000,5.000 MPI_PROCESS=26 /

-- MPI Process: <27> | MESH Qty: 1 | Cell Qty: 125000
Cell Qty: 125000 | Size: 0.100·0.100·0.100m | Aspect: 1.0 | Poisson: Yes
&MESH ID='Domain_s27_i0_j0_k0' IJK=50,50,50
      XB=31.250,36.250,25.750,30.750,0.000,5.000 MPI_PROCESS=27 /

-- MPI Process: <28> | MESH Qty: 1 | Cell Qty: 125000
Cell Qty: 125000 | Size: 0.100·0.100·0.100m | Aspect: 1.0 | Poisson: Yes
&MESH ID='Domain_s28_i0_j0_k0' IJK=50,50,50
      XB=31.250,36.250,30.750,35.750,0.000,5.000 MPI_PROCESS=28 /

-- MPI Process: <29> | MESH Qty: 1 | Cell Qty: 125000
Cell Qty: 125000 | Size: 0.100·0.100·0.100m | Aspect: 1.0 | Poisson: Yes
&MESH ID='Domain_s29_i0_j0_k0' IJK=50,50,50
      XB=31.250,36.250,35.750,40.750,0.000,5.000 MPI_PROCESS=29 /

-- MPI Process: <30> | MESH Qty: 1 | Cell Qty: 125000
Cell Qty: 125000 | Size: 0.100·0.100·0.100m | Aspect: 1.0 | Poisson: Yes
&MESH ID='Domain_s30_i0_j0_k0' IJK=50,50,50
      XB=36.250,41.250,10.750,15.750,0.000,5.000 MPI_PROCESS=30 /

-- MPI Process: <31> | MESH Qty: 1 | Cell Qty: 125000
Cell Qty: 125000 | Size: 0.100·0.100·0.100m | Aspect: 1.0 | Poisson: Yes
&MESH ID='Domain_s31_i0_j0_k0' IJK=50,50,50
      XB=36.250,41.250,15.750,20.750,0.000,5.000 MPI_PROCESS=31 /

-- MPI Process: <32> | MESH Qty: 1 | Cell Qty: 125000
Cell Qty: 125000 | Size: 0.100·0.100·0.100m | Aspect: 1.0 | Poisson: Yes
&MESH ID='Domain_s32_i0_j0_k0' IJK=50,50,50
      XB=36.250,41.250,20.750,25.750,0.000,5.000 MPI_PROCESS=32 /

-- MPI Process: <33> | MESH Qty: 1 | Cell Qty: 125000
Cell Qty: 125000 | Size: 0.100·0.100·0.100m | Aspect: 1.0 | Poisson: Yes
&MESH ID='Domain_s33_i0_j0_k0' IJK=50,50,50
      XB=36.250,41.250,25.750,30.750,0.000,5.000 MPI_PROCESS=33 /

-- MPI Process: <34> | MESH Qty: 1 | Cell Qty: 125000
Cell Qty: 125000 | Size: 0.100·0.100·0.100m | Aspect: 1.0 | Poisson: Yes
&MESH ID='Domain_s34_i0_j0_k0' IJK=50,50,50
      XB=36.250,41.250,30.750,35.750,0.000,5.000 MPI_PROCESS=34 /

-- MPI Process: <35> | MESH Qty: 1 | Cell Qty: 125000
Cell Qty: 125000 | Size: 0.100·0.100·0.100m | Aspect: 1.0 | Poisson: Yes
&MESH ID='Domain_s35_i0_j0_k0' IJK=50,50,50
      XB=36.250,41.250,35.750,40.750,0.000,5.000 MPI_PROCESS=35 /

-- MPI Process: <36> | MESH Qty: 1 | Cell Qty: 125000
Cell Qty: 125000 | Size: 0.100·0.100·0.100m | Aspect: 1.0 | Poisson: Yes
&MESH ID='Domain_s36_i0_j0_k0' IJK=50,50,50
      XB=41.250,46.250,10.750,15.750,0.000,5.000 MPI_PROCESS=36 /

-- MPI Process: <37> | MESH Qty: 1 | Cell Qty: 125000
Cell Qty: 125000 | Size: 0.100·0.100·0.100m | Aspect: 1.0 | Poisson: Yes
&MESH ID='Domain_s37_i0_j0_k0' IJK=50,50,50
      XB=41.250,46.250,15.750,20.750,0.000,5.000 MPI_PROCESS=37 /

-- MPI Process: <38> | MESH Qty: 1 | Cell Qty: 125000
Cell Qty: 125000 | Size: 0.100·0.100·0.100m | Aspect: 1.0 | Poisson: Yes
&MESH ID='Domain_s38_i0_j0_k0' IJK=50,50,50
      XB=41.250,46.250,20.750,25.750,0.000,5.000 MPI_PROCESS=38 /

-- MPI Process: <39> | MESH Qty: 1 | Cell Qty: 125000
Cell Qty: 125000 | Size: 0.100·0.100·0.100m | Aspect: 1.0 | Poisson: Yes
&MESH ID='Domain_s39_i0_j0_k0' IJK=50,50,50
      XB=41.250,46.250,25.750,30.750,0.000,5.000 MPI_PROCESS=39 /

-- MPI Process: <40> | MESH Qty: 1 | Cell Qty: 125000
Cell Qty: 125000 | Size: 0.100·0.100·0.100m | Aspect: 1.0 | Poisson: Yes
&MESH ID='Domain_s40_i0_j0_k0' IJK=50,50,50
      XB=41.250,46.250,30.750,35.750,0.000,5.000 MPI_PROCESS=40 /

-- MPI Process: <41> | MESH Qty: 1 | Cell Qty: 125000
Cell Qty: 125000 | Size: 0.100·0.100·0.100m | Aspect: 1.0 | Poisson: Yes
&MESH ID='Domain_s41_i0_j0_k0' IJK=50,50,50
      XB=41.250,46.250,35.750,40.750,0.000,5.000 MPI_PROCESS=41 /

-- MPI Process: <42> | MESH Qty: 1 | Cell Qty: 125000
Cell Qty: 125000 | Size: 0.100·0.100·0.100m | Aspect: 1.0 | Poisson: Yes
&MESH ID='Domain_s42_i0_j0_k0' IJK=50,50,50
      XB=46.250,51.250,10.750,15.750,0.000,5.000 MPI_PROCESS=42 /

-- MPI Process: <43> | MESH Qty: 1 | Cell Qty: 125000
Cell Qty: 125000 | Size: 0.100·0.100·0.100m | Aspect: 1.0 | Poisson: Yes
&MESH ID='Domain_s43_i0_j0_k0' IJK=50,50,50
      XB=46.250,51.250,15.750,20.750,0.000,5.000 MPI_PROCESS=43 /

-- MPI Process: <44> | MESH Qty: 1 | Cell Qty: 125000
Cell Qty: 125000 | Size: 0.100·0.100·0.100m | Aspect: 1.0 | Poisson: Yes
&MESH ID='Domain_s44_i0_j0_k0' IJK=50,50,50
      XB=46.250,51.250,20.750,25.750,0.000,5.000 MPI_PROCESS=44 /

-- MPI Process: <45> | MESH Qty: 1 | Cell Qty: 125000
Cell Qty: 125000 | Size: 0.100·0.100·0.100m | Aspect: 1.0 | Poisson: Yes
&MESH ID='Domain_s45_i0_j0_k0' IJK=50,50,50
      XB=46.250,51.250,25.750,30.750,0.000,5.000 MPI_PROCESS=45 /

-- MPI Process: <46> | MESH Qty: 1 | Cell Qty: 125000
Cell Qty: 125000 | Size: 0.100·0.100·0.100m | Aspect: 1.0 | Poisson: Yes
&MESH ID='Domain_s46_i0_j0_k0' IJK=50,50,50
      XB=46.250,51.250,30.750,35.750,0.000,5.000 MPI_PROCESS=46 /

-- MPI Process: <47> | MESH Qty: 1 | Cell Qty: 125000
Cell Qty: 125000 | Size: 0.100·0.100·0.100m | Aspect: 1.0 | Poisson: Yes
&MESH ID='Domain_s47_i0_j0_k0' IJK=50,50,50
      XB=46.250,51.250,35.750,40.750,0.000,5.000 MPI_PROCESS=47 /

-- MPI Process: <48> | MESH Qty: 1 | Cell Qty: 125000
Cell Qty: 125000 | Size: 0.100·0.100·0.100m | Aspect: 1.0 | Poisson: Yes
&MESH ID='Domain_s48_i0_j0_k0' IJK=50,50,50
      XB=51.250,56.250,10.750,15.750,0.000,5.000 MPI_PROCESS=48 /

-- MPI Process: <49> | MESH Qty: 1 | Cell Qty: 125000
Cell Qty: 125000 | Size: 0.100·0.100·0.100m | Aspect: 1.0 | Poisson: Yes
&MESH ID='Domain_s49_i0_j0_k0' IJK=50,50,50
      XB=51.250,56.250,15.750,20.750,0.000,5.000 MPI_PROCESS=49 /

-- MPI Process: <50> | MESH Qty: 1 | Cell Qty: 125000
Cell Qty: 125000 | Size: 0.100·0.100·0.100m | Aspect: 1.0 | Poisson: Yes
&MESH ID='Domain_s50_i0_j0_k0' IJK=50,50,50
      XB=51.250,56.250,20.750,25.750,0.000,5.000 MPI_PROCESS=50 /

-- MPI Process: <51> | MESH Qty: 1 | Cell Qty: 125000
Cell Qty: 125000 | Size: 0.100·0.100·0.100m | Aspect: 1.0 | Poisson: Yes
&MESH ID='Domain_s51_i0_j0_k0' IJK=50,50,50
      XB=51.250,56.250,25.750,30.750,0.000,5.000 MPI_PROCESS=51 /

-- MPI Process: <52> | MESH Qty: 1 | Cell Qty: 125000
Cell Qty: 125000 | Size: 0.100·0.100·0.100m | Aspect: 1.0 | Poisson: Yes
&MESH ID='Domain_s52_i0_j0_k0' IJK=50,50,50
      XB=51.250,56.250,30.750,35.750,0.000,5.000 MPI_PROCESS=52 /

-- MPI Process: <53> | MESH Qty: 1 | Cell Qty: 125000
Cell Qty: 125000 | Size: 0.100·0.100·0.100m | Aspect: 1.0 | Poisson: Yes
&MESH ID='Domain_s53_i0_j0_k0' IJK=50,50,50
      XB=51.250,56.250,35.750,40.750,0.000,5.000 MPI_PROCESS=53 /

--- Geometric namelists from Blender Collections

-- Blender Collection: <Obstacles>
&VENT ID='Burner' SURF_ID='Fire' XB=46.470,48.470,21.092,23.092,1.000,1.000 /
&OBST ID='Burner_box' XB=46.470,48.470,21.092,23.092,0.000,1.000 /

-- Blender Collection: <Output>
&SLCF ID='extinction_coefficient' QUANTITY='EXTINCTION COEFFICIENT'
      CELL_CENTERED=T PBZ=2.000 /
&SLCF ID='temperature' QUANTITY='TEMPERATURE' CELL_CENTERED=T PBZ=2.000 /
&SLCF ID='visibility' QUANTITY='VISIBILITY' CELL_CENTERED=T PBZ=2.000
      SPEC_ID='OXYGEN' /
&SLCF ID='volume_fraction_carbon_dioxide' QUANTITY='VOLUME FRACTION'
      CELL_CENTERED=T PBZ=2.000 SPEC_ID='CARBON DIOXIDE' /
&SLCF ID='volume_fraction_carbon_monoxide' QUANTITY='VOLUME FRACTION'
      CELL_CENTERED=T PBZ=2.000 SPEC_ID='CARBON MONOXIDE' /
&SLCF ID='volume_fraction_oxygen' QUANTITY='VOLUME FRACTION' CELL_CENTERED=T
      PBZ=2.000 SPEC_ID='OXYGEN' /

-- Blender Collection: <IfcProject/BUW_MRL>
&SLCF ID='extinction_coefficient.001' QUANTITY='EXTINCTION COEFFICIENT'
      CELL_CENTERED=T PBZ=2.000 /

-- Blender Collection: <IfcBuildingStorey/EG_OKRD>
&OBST ID='IfcBuildingElementProxy/BUW_Aufzugsanlage:1900 x 2350mm:846821'
      XB=24.574,27.114,19.082,20.982,-0.090,4.500 /
&OBST ID='IfcColumn/Stütze Stahlbeton:I_ST_STB_d=30:396312'
      XB=54.749,55.049,30.877,31.177,-0.130,4.170 /
&OBST ID='IfcColumn/Stütze Stahlbeton:I_ST_STB_d=30:396364'
      XB=48.669,48.969,30.877,31.177,-0.130,4.170 /
&OBST ID='IfcColumn/Stütze Stahlbeton:I_ST_STB_d=30:396385'
      XB=41.409,41.709,30.877,31.177,-0.130,4.170 /
&OBST ID='IfcColumn/Stütze Stahlbeton:I_ST_STB_d=30:396406'
      XB=34.149,34.449,30.877,31.177,-0.130,3.570 /
&OBST ID='IfcColumn/Stütze Stahlbeton:I_ST_STB_d=30:396431'
      XB=34.149,34.449,36.577,36.877,-0.130,3.570 /
&OBST ID='IfcColumn/Stütze Stahlbeton:I_ST_STB_d=30:396454'
      XB=41.409,41.709,36.577,36.877,-0.130,4.170 /
&OBST ID='IfcColumn/Stütze Stahlbeton:I_ST_STB_d=30:396475'
      XB=48.669,48.969,36.577,36.877,-0.130,4.170 /
&OBST ID='IfcColumn/Stütze Stahlbeton:I_ST_STB_d=30:396496'
      XB=54.749,55.049,36.577,36.877,-0.130,4.170 /
&OBST ID='IfcColumn/Stütze Stahlbeton:I_ST_STB_d=35:395435'
      XB=12.604,12.954,11.852,12.202,-0.130,4.170 /
&OBST ID='IfcColumn/Stütze Stahlbeton:I_ST_STB_d=35:396016'
      XB=19.864,20.214,11.852,12.202,-0.130,4.170 /
&OBST ID='IfcColumn/Stütze Stahlbeton:I_ST_STB_d=35:396075'
      XB=27.124,27.474,11.852,12.202,-0.130,4.170 /
&OBST ID='IfcColumn/Stütze Stahlbeton:I_ST_STB_d=35:396092'
      XB=34.124,34.474,11.852,12.202,-0.130,4.170 /
&OBST ID='IfcColumn/Stütze Stahlbeton:I_ST_STB_d=35:396113'
      XB=41.384,41.734,11.852,12.202,-0.130,4.170 /
&OBST ID='IfcColumn/Stütze Stahlbeton:I_ST_STB_d=35:396138'
      XB=54.724,55.074,11.852,12.202,-0.130,4.170 /
&OBST ID='IfcColumn/Stütze Stahlbeton:I_ST_STB_d=35:396169'
      XB=54.724,55.074,18.202,18.552,-0.130,4.170 /
&OBST ID='IfcColumn/Stütze Stahlbeton:I_ST_STB_d=35:396186'
      XB=41.384,41.734,18.202,18.552,-0.130,4.170 /
&OBST ID='IfcColumn/Stütze Stahlbeton:I_ST_STB_d=35:396205'
      XB=34.124,34.474,18.202,18.552,-0.130,4.170 /
&OBST ID='IfcColumn/Stütze Stahlbeton:I_ST_STB_d=35:396228'
      XB=34.124,34.474,25.152,25.502,-0.130,3.570 /
&OBST ID='IfcColumn/Stütze Stahlbeton:I_ST_STB_d=35:396253'
      XB=41.384,41.734,25.152,25.502,-0.130,4.170 /
&OBST ID='IfcColumn/Stütze Stahlbeton:I_ST_STB_d=35:396270'
      XB=48.644,48.994,25.152,25.502,-0.130,4.170 /
&OBST ID='IfcColumn/Stütze Stahlbeton:I_ST_STB_d=35:396291'
      XB=54.724,55.074,25.152,25.502,-0.130,4.170 /
&OBST ID='IfcColumn/Stütze Stahlbeton:I_ST_VBS_d=27.3:1122879'
      XB=25.493,25.766,36.590,36.863,-0.130,3.570 /
&OBST ID='IfcColumn/Stütze Stahlbeton:I_ST_VBS_d=27.3:1122881'
      XB=12.643,12.916,36.590,36.863,-0.130,3.570 /
&OBST ID='IfcCovering/Deckensystem:I_DE-A_GK_15:1121549'
      XB=27.449,29.295,34.896,36.491,2.285,2.435 /
&OBST ID='IfcDoor/A_PR 2-flg - Drehflügel - Füllelement:xxx:420248'
      XB=30.434,32.534,11.357,11.547,0.050,2.500 /
&OBST ID='IfcDoor/A_PR 2-flg - Drehflügel - Füllelement:xxx:422196'
      XB=43.914,45.024,11.357,11.547,0.050,2.500 /
&OBST ID='IfcDoor/A_PR 2-flg - Drehflügel - Füllelement:xxx:427754'
      XB=49.804,50.914,11.357,11.547,0.050,2.500 /
&OBST ID='IfcDoor/A_PR 2-flg - Drehflügel - Füllelement:xxx:429543'
      XB=55.799,55.989,26.677,28.777,0.050,2.500 /
&OBST ID='IfcDoor/A_PR 2-flg - Drehflügel - Füllelement:xxx:430635'
      XB=11.939,12.129,18.527,20.327,0.050,2.500 /
&OBST ID='IfcDoor/A_PR 2-flg - Drehflügel - Füllelement:xxx:432095'
      XB=19.099,21.099,37.207,37.397,0.050,2.500 /
&OBST ID='IfcDoor/A_PR 2-flg - Drehflügel - Füllelement:xxx:432781'
      XB=30.559,32.559,37.207,37.397,0.050,2.500 /
&OBST ID='IfcDoor/A_PR 2-flg - Drehflügel - Füllelement:xxx:441826'
      XB=27.314,27.504,35.056,36.332,0.000,2.201 /
&OBST ID='IfcDoor/A_PR 2-flg - Drehflügel - Füllelement:xxx:444141'
      XB=29.114,29.304,35.056,36.332,0.000,2.201 /
&OBST ID='IfcDoor/A_PR 2-flg - Drehflügel - Füllelement:xxx:523034'
      XB=56.531,57.874,20.314,20.504,0.000,2.470 /
&OBST ID='IfcDoor/A_PR 2-flg - Drehflügel - Füllelement:xxx:825482'
      XB=30.434,32.534,14.007,14.197,0.130,2.630 /
&OBST ID='IfcDoor/A_PR 2-flg - Drehflügel - Füllelement:xxx:825818'
      XB=53.149,53.339,26.677,28.777,0.130,2.630 /
&OBST ID='IfcDoor/I_DT 1-flg - Stahlzarge - Glasfüllung:1.01 / 2.001'
      XB=45.274,45.549,15.017,16.076,0.000,2.159 /
&OBST ID='IfcDoor/I_DT 1-flg - Stahlzarge - Glasfüllung:1.01 / 2.002'
      XB=50.899,51.124,17.862,18.921,0.000,2.159 /
&OBST ID='IfcDoor/I_DT 1-flg - Stahlzarge - Glasfüllung:1.01 / 2.003'
      XB=50.899,51.124,11.857,12.916,0.000,2.159 /
&OBST ID='IfcDoor/I_DT 1-flg - Stahlzarge - Glasfüllung:1.01 / 2.135'
      XB=44.067,45.126,14.733,14.958,0.000,2.159 /
&OBST ID='IfcDoor/I_DT 1-flg - Stahlzarge - Glasfüllung:1.01 / 2.135:448'
      XB=43.579,43.919,13.567,14.626,0.000,2.159 /
&OBST ID='IfcDoor/I_DT 1-flg - Stahlzarge - Glasfüllung:1.01 / 2.135:449'
      XB=49.750,50.809,14.042,14.267,0.000,2.159 /
&OBST ID='IfcDoor/I_DT 1-flg - Stahlzarge - Glasfüllung:1.01 / 2.135:453'
      XB=48.584,48.984,17.862,18.921,0.000,2.159 /
&OBST ID='IfcDoor/I_DT 1-flg - Stahlzarge - Glasfüllung:1.01 / 2.135:454'
      XB=49.434,49.659,15.227,16.286,0.000,2.159 /
&OBST ID='IfcDoor/I_DT 1-flg - Stahlzarge - Glasfüllung:1.23 / 2.18:4485'
      XB=37.114,37.414,18.242,19.521,0.000,2.204 /
&OBST ID='IfcDoor/I_DT 1-flg - Stahlzarge - Glasfüllung:1.23 / 2.18:4492'
      XB=44.737,46.016,19.667,19.882,0.000,2.204 /
&OBST ID='IfcDoor/I_DT 1-flg - Stahlzarge - Glasfüllung:1.23 / 2.18:4493'
      XB=49.560,50.839,20.362,20.612,0.000,2.204 /
&OBST ID='IfcDoor/I_DT 1-flg - Stahlzarge - Glasfüllung:1.23 / 2.18:4497'
      XB=53.650,54.929,20.362,20.612,0.000,2.204 /
&OBST ID='IfcDoor/I_DT 2-flg - Stahlzarge - Glasfüllung:2.90 / 2.51:4516'
      XB=21.650,24.599,18.262,18.612,0.000,2.534 /
&OBST ID='IfcDoor/I_PR 1-flg - Drehflügel - Glas:3.27-1.00:826457'
      XB=37.399,38.399,25.490,25.680,0.130,3.400 /
&OBST ID='IfcMember/Eckpfosten quadratisch:BUW_5 x 5:420583'
      XB=12.009,12.059,11.427,11.477,3.500,4.120 /
&OBST ID='IfcMember/Eckpfosten quadratisch:BUW_5 x 5:426362'
      XB=12.009,12.059,11.427,11.477,1.000,2.500 /
&OBST ID='IfcMember/Eckpfosten quadratisch:BUW_5 x 5:427098'
      XB=12.009,12.059,11.427,11.477,0.050,1.000 /
&OBST ID='IfcMember/Eckpfosten quadratisch:BUW_5 x 5:428419'
      XB=55.869,55.919,11.427,11.477,1.000,2.500 /
&OBST ID='IfcMember/Eckpfosten quadratisch:BUW_5 x 5:428420'
      XB=55.869,55.919,11.427,11.477,2.500,3.500 /
&OBST ID='IfcMember/Eckpfosten quadratisch:BUW_5 x 5:428421'
      XB=55.869,55.919,11.427,11.477,0.050,1.000 /
&OBST ID='IfcMember/Eckpfosten quadratisch:BUW_5 x 5:435034'
      XB=55.869,55.919,37.277,37.327,-0.000,2.500 /
&OBST ID='IfcMember/Eckpfosten quadratisch:BUW_5 x 5:435044'
      XB=12.009,12.059,37.277,37.327,3.500,4.170 /
&OBST ID='IfcMember/Eckpfosten quadratisch:BUW_5 x 5:435739'
      XB=55.869,55.919,37.277,37.327,2.500,3.500 /
&OBST ID='IfcMember/Eckpfosten quadratisch:BUW_5 x 5:436303'
      XB=12.009,12.059,37.277,37.327,0.000,2.500 /
&OBST ID='IfcMember/Eckpfosten quadratisch:BUW_5 x 5:454885'
      XB=32.534,32.584,14.077,14.127,0.130,4.170 /
&OBST ID='IfcMember/Eckpfosten quadratisch:BUW_5 x 5:454889'
      XB=30.384,30.434,14.077,14.127,0.130,4.170 /
&OBST ID='IfcMember/Eckpfosten quadratisch:BUW_5 x 5:798944'
      XB=53.219,53.269,28.777,28.827,0.130,4.170 /
&OBST ID='IfcMember/Eckpfosten quadratisch:BUW_5 x 5:798945'
      XB=53.219,53.269,26.627,26.677,0.130,4.170 /
&OBST ID='IfcMember/Eckpfosten quadratisch:BUW_5 x 5:799678'
      XB=12.009,12.059,37.277,37.327,2.500,3.500 /
&OBST ID='IfcMember/Eckpfosten quadratisch:BUW_5 x 5:800178'
      XB=12.009,12.059,11.427,11.477,2.500,3.500 /
&OBST ID='IfcMember/Eckpfosten quadratisch:BUW_5 x 5:800207'
      XB=55.869,55.919,11.427,11.477,3.500,4.120 /
&OBST ID='IfcMember/Eckpfosten quadratisch:BUW_5 x 5:800448'
      XB=55.869,55.919,37.277,37.327,3.500,4.170 /
&OBST ID='IfcMember/Eckpfosten quadratisch:BUW_5 x 5:825621'
      XB=30.384,30.434,14.077,14.127,0.000,0.130 /
&OBST ID='IfcMember/Eckpfosten quadratisch:BUW_5 x 5:825715'
      XB=32.534,32.584,14.077,14.127,0.000,0.130 /
&OBST ID='IfcMember/Eckpfosten quadratisch:BUW_5 x 5:825871'
      XB=53.219,53.269,28.777,28.827,0.000,0.130 /
&OBST ID='IfcMember/Eckpfosten quadratisch:BUW_5 x 5:826060'
      XB=53.219,53.269,26.627,26.677,0.000,0.130 /
&OBST ID='IfcMember/Pfosten rechteckig:BUW_2 x 5:439656'
      XB=37.224,37.274,34.977,34.997,-0.000,0.130 /
&OBST ID='IfcMember/Pfosten rechteckig:BUW_2 x 5:439662'
      XB=37.224,37.274,32.807,32.827,-0.000,0.130 /
&OBST ID='IfcMember/Pfosten rechteckig:BUW_2 x 5:439666'
      XB=37.224,37.274,30.637,30.657,-0.000,0.130 /
&OBST ID='IfcMember/Pfosten rechteckig:BUW_2 x 5:826926'
      XB=37.224,37.274,34.977,34.997,0.130,4.170 /
&OBST ID='IfcMember/Pfosten rechteckig:BUW_2 x 5:826927'
      XB=37.224,37.274,32.807,32.827,0.130,4.170 /
&OBST ID='IfcMember/Pfosten rechteckig:BUW_2 x 5:826928'
      XB=37.224,37.274,30.637,30.657,0.130,4.170 /
&OBST ID='IfcMember/Pfosten rechteckig:BUW_5 x 11:446518'
      XB=37.199,37.309,21.547,21.597,0.000,4.170 /
&OBST ID='IfcMember/Pfosten rechteckig:BUW_5 x 11:446519'
      XB=37.199,37.309,20.647,21.547,4.120,4.170 /
&OBST ID='IfcMember/Pfosten rechteckig:BUW_5 x 11:446520'
      XB=37.199,37.309,20.597,20.647,-0.000,4.170 /
&OBST ID='IfcMember/Pfosten rechteckig:BUW_5 x 11:446521'
      XB=37.199,37.309,20.647,21.547,-0.000,0.050 /
&OBST ID='IfcMember/Pfosten rechteckig:BUW_5 x 11:446527'
      XB=37.199,37.309,16.627,16.677,1.000,4.170 /
&OBST ID='IfcMember/Pfosten rechteckig:BUW_5 x 11:446528'
      XB=37.199,37.309,15.327,16.627,4.120,4.170 /
&OBST ID='IfcMember/Pfosten rechteckig:BUW_5 x 11:446529'
      XB=37.199,37.309,15.277,15.327,-0.000,1.000 /
&OBST ID='IfcMember/Pfosten rechteckig:BUW_5 x 11:446530'
      XB=37.199,37.309,15.327,16.627,-0.000,0.050 /
&OBST ID='IfcMember/Pfosten rechteckig:BUW_5 x 11:446607'
      XB=37.199,37.309,16.627,16.677,0.000,1.000 /
&OBST ID='IfcMember/Pfosten rechteckig:BUW_5 x 11:446608'
      XB=37.199,37.309,15.277,15.327,1.000,4.170 /
&OBST ID='IfcMember/Pfosten rechteckig:BUW_5 x 11:446639'
      XB=37.199,37.309,15.327,16.627,0.975,1.025 /
&OBST ID='IfcMember/Pfosten rechteckig:BUW_5 x 17:407894'
      XB=12.749,12.799,37.157,37.327,-0.000,2.500 /
&OBST ID='IfcMember/Pfosten rechteckig:BUW_5 x 17:407897'
      XB=14.324,14.374,37.157,37.327,-0.000,2.500 /
&OBST ID='IfcMember/Pfosten rechteckig:BUW_5 x 17:407900'
! ... 1067 like lines cut
&OBST ID='IfcPlate/Systemelement:BUW_METALLSCHEIBE_30mm:421572'
      XB=40.799,42.307,11.437,11.467,0.050,3.500 /
&OBST ID='IfcPlate/Systemelement:BUW_METALLSCHEIBE_30mm:422317'
      XB=45.074,46.601,11.437,11.467,0.050,3.500 /
&OBST ID='IfcPlate/Systemelement:BUW_METALLSCHEIBE_30mm:427390'
      XB=42.357,43.864,11.437,11.467,0.050,3.500 /
&OBST ID='IfcPlate/Systemelement:BUW_METALLSCHEIBE_30mm:427626'
      XB=46.651,48.177,11.437,11.467,0.050,3.500 /
&OBST ID='IfcPlate/Systemelement:BUW_METALLSCHEIBE_30mm:427659'
      XB=48.227,49.754,11.437,11.467,0.050,3.500 /
&OBST ID='IfcPlate/Systemelement:BUW_METALLSCHEIBE_30mm:427756'
      XB=49.804,50.914,11.437,11.467,2.500,3.500 /
&OBST ID='IfcPlate/Systemelement:BUW_METALLSCHEIBE_30mm:428608'
      XB=55.879,55.909,12.892,14.372,0.050,3.500 /
&OBST ID='IfcPlate/Systemelement:BUW_METALLSCHEIBE_30mm:428709'
      XB=55.879,55.909,14.422,15.903,0.050,3.500 /
&OBST ID='IfcPlate/Systemelement:BUW_METALLSCHEIBE_30mm:428862'
      XB=55.879,55.909,15.953,17.433,0.050,3.500 /
&OBST ID='IfcPlate/Systemelement:BUW_METALLSCHEIBE_30mm:429105'
      XB=55.879,55.909,17.483,18.964,0.050,3.500 /
&OBST ID='IfcPlate/Systemelement:BUW_METALLSCHEIBE_30mm:440137'
      XB=38.399,41.884,25.570,25.600,0.000,0.130 /
&OBST ID='IfcPlate/Systemelement:BUW_METALLSCHEIBE_30mm:440146'
      XB=41.784,48.594,25.506,25.536,0.000,0.130 /
&OBST ID='IfcPlate/Systemelement:BUW_METALLSCHEIBE_30mm:440154'
      XB=48.494,51.749,25.570,25.600,0.000,0.130 /
&OBST ID='IfcPlate/Systemelement:BUW_METALLSCHEIBE_30mm:440270'
      XB=37.399,38.399,25.570,25.600,0.000,0.130 /
&OBST ID='IfcPlate/Systemelement:BUW_METALLSCHEIBE_30mm:440760'
      XB=27.394,27.424,22.227,22.249,0.000,4.170 /
&OBST ID='IfcPlate/Systemelement:BUW_METALLSCHEIBE_30mm:441495'
      XB=27.394,27.424,36.416,36.527,0.084,2.201 /
&OBST ID='IfcPlate/Systemelement:BUW_METALLSCHEIBE_30mm:441893'
      XB=27.394,27.424,34.861,34.972,0.084,2.201 /
&OBST ID='IfcPlate/Systemelement:BUW_METALLSCHEIBE_30mm:443908'
      XB=29.194,29.224,36.374,36.421,0.000,2.285 /
&OBST ID='IfcPlate/Systemelement:BUW_METALLSCHEIBE_30mm:444047'
      XB=29.194,29.224,34.966,35.014,0.000,2.285 /
&OBST ID='IfcPlate/Systemelement:BUW_METALLSCHEIBE_30mm:522711'
      XB=55.919,56.079,20.394,20.424,0.000,2.470 /
! ... 204 like lines cut
&OBST ID='IfcPlate/Systemelement:BUW_Verglasung:407002'
      XB=12.059,12.749,37.287,37.317,0.050,3.500 /
&OBST ID='IfcPlate/Systemelement:BUW_Verglasung:407403'
      XB=17.524,19.049,37.287,37.317,0.050,3.500 /
&OBST ID='IfcPlate/Systemelement:BUW_Verglasung:407514'
      XB=15.949,17.474,37.287,37.317,0.050,3.500 /
&OBST ID='IfcPlate/Systemelement:BUW_Verglasung:407685'
      XB=14.374,15.899,37.287,37.317,0.050,3.500 /
&OBST ID='IfcPlate/Systemelement:BUW_Verglasung:407823'
      XB=12.799,14.324,37.287,37.317,0.050,3.500 /
&OBST ID='IfcPlate/Systemelement:BUW_Verglasung:418798'
      XB=12.059,12.729,11.437,11.467,0.050,3.500 /
&OBST ID='IfcPlate/Systemelement:BUW_Verglasung:419074'
      XB=12.779,14.334,11.437,11.467,0.050,3.500 /
&OBST ID='IfcPlate/Systemelement:BUW_Verglasung:419227'
      XB=14.384,15.939,11.437,11.467,0.050,3.500 /
&OBST ID='IfcPlate/Systemelement:BUW_Verglasung:419352'
      XB=15.989,17.544,11.437,11.467,0.050,3.500 /
&OBST ID='IfcPlate/Systemelement:BUW_Verglasung:419430'
      XB=17.594,19.149,11.437,11.467,0.050,3.500 /
&OBST ID='IfcPlate/Systemelement:BUW_Verglasung:419528'
      XB=19.199,20.754,11.437,11.467,0.050,3.500 /
&OBST ID='IfcPlate/Systemelement:BUW_Verglasung:419604'
      XB=20.804,22.359,11.437,11.467,0.050,3.500 /
&OBST ID='IfcPlate/Systemelement:BUW_Verglasung:419714'
      XB=22.409,23.964,11.437,11.467,0.050,3.500 /
&OBST ID='IfcPlate/Systemelement:BUW_Verglasung:419786'
      XB=24.014,25.569,11.437,11.467,0.050,3.500 /
&OBST ID='IfcPlate/Systemelement:BUW_Verglasung:419848'
      XB=25.619,27.174,11.437,11.467,0.050,3.500 /
&OBST ID='IfcPlate/Systemelement:BUW_Verglasung:419956'
      XB=27.224,28.779,11.437,11.467,0.050,3.500 /
&OBST ID='IfcPlate/Systemelement:BUW_Verglasung:420074'
      XB=28.829,30.384,11.437,11.467,0.050,3.500 /
&OBST ID='IfcPlate/Systemelement:BUW_Verglasung:420618'
      XB=12.019,12.049,36.742,37.277,0.050,3.500 /
&OBST ID='IfcPlate/Systemelement:BUW_Verglasung:420829'
      XB=32.584,34.139,11.437,11.467,0.050,3.500 /
&OBST ID='IfcPlate/Systemelement:BUW_Verglasung:421012'
      XB=34.189,35.744,11.437,11.467,0.050,3.500 /
! ... 180 like lines cut
&OBST ID='IfcPlate/Systemelement:Verglasung:454984'
      XB=30.434,32.534,14.087,14.117,2.630,4.170 /
&OBST ID='IfcPlate/Systemelement:Verglasung:523068'
      XB=56.079,56.531,20.394,20.424,-0.000,4.170 /
&OBST ID='IfcPlate/Systemelement:Verglasung:523182'
      XB=56.531,57.874,20.394,20.424,2.470,4.170 /
&OBST ID='IfcPlate/Systemelement:Verglasung:798947'
      XB=53.229,53.259,26.677,28.777,2.630,4.170 /
&OBST ID='IfcPlate/Systemelement:Verglasung:825616'
      XB=30.394,30.424,11.597,14.077,0.130,4.170 /
&OBST ID='IfcPlate/Systemelement:Verglasung:825711'
      XB=32.544,32.574,11.597,14.077,0.130,4.170 /
&OBST ID='IfcPlate/Systemelement:Verglasung:825867'
      XB=53.269,55.749,28.787,28.817,0.130,4.170 /
&OBST ID='IfcPlate/Systemelement:Verglasung:826056'
      XB=53.269,55.749,26.637,26.667,0.130,4.170 /
&OBST ID='IfcRailing/Geländer:Stahl (2) - Horizontal:1069049'
      XB=13.125,21.233,21.901,21.971,0.167,5.397 /
&OBST ID='IfcRailing/Geländer:Stahl (2) - Horizontal:1069053'
      XB=13.125,21.233,20.382,20.452,0.167,5.397 /
&OBST ID='IfcRailing/Geländer:Stahl (2) - Horizontal:1069303'
      XB=16.005,21.233,20.252,20.322,0.000,0.900 /
&OBST ID='IfcRailing/Geländer:Stahl (2) - Horizontal:529639' /
&OBST ID='IfcSlab/Geschossdecke:A_GL 30.0:1149699'
      XB=9.079,57.999,4.860,40.257,-0.300,0.000 /
&OBST ID='IfcSlab/Geschossdecke:A_TS 20.0:1137768'
      XB=9.326,16.897,4.857,5.837,-1.100,-0.900 /
&OBST ID='IfcSlab/Geschossdecke:A_TS 20.0:1138288'
      XB=9.326,26.137,5.837,6.817,-0.900,-0.700 /
&OBST ID='IfcSlab/Geschossdecke:A_TS 20.0:1138530'
      XB=9.326,35.404,6.817,7.797,-0.700,-0.500 /
&OBST ID='IfcSlab/Geschossdecke:A_TS 20.0:1138805'
      XB=9.326,47.383,7.797,8.777,-0.500,-0.300 /
&OBST ID='IfcSlab/Geschossdecke:I_BB_TSD 4.0_ES 8.3_FL 0.7:1082496'
      XB=12.179,55.749,11.597,37.157,-0.130,0.000 /
&OBST ID='IfcSlab/Geschossdecke:I_BB_TSD 4.0_ES 8.3_FL 0.7:436709'
      XB=37.299,55.749,11.597,20.539,-0.130,0.000 /
&OBST ID='IfcSlab/Geschossdecke:I_DE_STB 20.0:1119482'
      XB=11.849,56.079,11.267,37.487,-0.330,-0.130 /
XB Voxels: 12 | Resolution: 0.100 m
&OBST ID='IfcSlab/I_Tribüne:I_Tribüne:1111948_0'
      XB=14.150,25.150,34.150,34.950,-0.500,-0.200 /
&OBST ID='IfcSlab/I_Tribüne:I_Tribüne:1111948_1'
      XB=14.150,25.150,33.250,34.950,-0.700,-0.500 /
&OBST ID='IfcSlab/I_Tribüne:I_Tribüne:1111948_2'
      XB=14.150,25.150,32.450,34.950,-1.000,-0.700 /
&OBST ID='IfcSlab/I_Tribüne:I_Tribüne:1111948_3'
      XB=14.150,25.150,31.550,34.950,-1.200,-1.000 /
&OBST ID='IfcSlab/I_Tribüne:I_Tribüne:1111948_4'
      XB=14.150,25.150,30.750,34.950,-1.400,-1.200 /
&OBST ID='IfcSlab/I_Tribüne:I_Tribüne:1111948_5'
      XB=14.150,25.150,29.850,34.950,-1.700,-1.400 /
&OBST ID='IfcSlab/I_Tribüne:I_Tribüne:1111948_6'
      XB=14.150,25.150,29.050,34.950,-1.900,-1.700 /
&OBST ID='IfcSlab/I_Tribüne:I_Tribüne:1111948_7'
      XB=14.150,25.150,28.150,34.950,-2.200,-1.900 /
&OBST ID='IfcSlab/I_Tribüne:I_Tribüne:1111948_8'
      XB=14.150,25.150,27.350,34.950,-2.400,-2.200 /
&OBST ID='IfcSlab/I_Tribüne:I_Tribüne:1111948_9'
      XB=14.150,25.150,26.450,34.950,-2.600,-2.400 /
&OBST ID='IfcSlab/I_Tribüne:I_Tribüne:1111948_10'
      XB=14.150,25.150,25.650,34.950,-2.900,-2.600 /
&OBST ID='IfcSlab/I_Tribüne:I_Tribüne:1111948_11'
      XB=14.150,25.150,24.750,34.950,-3.100,-2.900 /
&OBST ID='IfcStairFlight/Fertigbetontreppe:Treppe:1068856 Run 1'
      XB=13.129,21.229,20.377,21.977,0.000,4.500 /
&OBST ID='IfcWallStandardCase/Basiswand:I_WA_GKV_17.5_A:1124525'
      XB=47.169,48.669,19.507,19.682,0.000,4.170 /
&OBST ID='IfcWallStandardCase/Basiswand:I_WA_GK_10:801098'
      XB=41.764,48.669,16.827,16.927,0.000,3.500 /
&OBST ID='IfcWallStandardCase/Basiswand:I_WA_GK_12.5:399197'
      XB=48.969,49.644,16.677,16.802,0.000,4.170 /
&OBST ID='IfcWallStandardCase/Basiswand:I_WA_GK_12.5:399205'
      XB=49.519,49.644,15.202,16.677,0.000,4.170 /
&OBST ID='IfcWallStandardCase/Basiswand:I_WA_GK_12.5:399214'
      XB=50.914,51.039,11.597,20.447,0.000,4.170 /
&OBST ID='IfcWallStandardCase/Basiswand:I_WA_GK_12.5:399222'
      XB=51.039,55.749,13.377,13.502,0.000,4.170 /
&OBST ID='IfcWallStandardCase/Basiswand:I_WA_GK_12.5:399226'
      XB=51.039,52.939,16.877,17.002,0.000,4.170 /
&OBST ID='IfcWallStandardCase/Basiswand:I_WA_GK_12.5:399230'
      XB=52.814,52.939,14.977,16.877,0.000,4.170 /
&OBST ID='IfcWallStandardCase/Basiswand:I_WA_GK_12.5_BW_F90AB:1108228'
      XB=49.519,49.644,13.377,15.202,0.000,4.170 /
&OBST ID='IfcWallStandardCase/Basiswand:I_WA_GK_12.5_BW_F90AB:399201'
      XB=48.969,49.519,15.077,15.202,0.000,4.170 /
&OBST ID='IfcWallStandardCase/Basiswand:I_WA_GK_12.5_BW_F90AB:399210'
      XB=48.969,49.519,13.377,13.502,0.000,4.170 /
&OBST ID='IfcWallStandardCase/Basiswand:I_WA_GK_12.5_BW_F90AB:399218'
      XB=49.644,50.914,14.127,14.252,0.000,4.170 /
&OBST ID='IfcWallStandardCase/Basiswand:I_WA_GK_12.5_BW_F90AB:399332'
      XB=43.904,45.289,14.818,14.943,0.000,4.170 /
&OBST ID='IfcWallStandardCase/Basiswand:I_WA_GK_15.0_BW_F90AB:398164'
      XB=24.824,27.174,22.077,22.227,0.000,4.170 /
&OBST ID='IfcWallStandardCase/Basiswand:I_WA_GK_15.0_BW_F90AB:399144'
      XB=37.399,48.669,16.677,16.827,0.000,4.170 /
&OBST ID='IfcWallStandardCase/Basiswand:I_WA_GK_15.0_BW_F90AB:399152'
      XB=37.399,43.664,15.127,15.277,0.000,4.170 /
&OBST ID='IfcWallStandardCase/Basiswand:I_WA_GK_15.0_BW_F90AB:399306'
      XB=48.969,55.749,20.447,20.597,0.000,4.170 /
&OBST ID='IfcWallStandardCase/Basiswand:I_WA_GK_16.0:401080'
      XB=51.949,52.859,24.842,25.002,0.000,3.500 /
&OBST ID='IfcWallStandardCase/Basiswand:I_WA_GK_16.0:401084'
      XB=51.949,52.859,21.832,21.992,0.000,3.500 /
&OBST ID='IfcWallStandardCase/Basiswand:I_WA_GK_20.0:399357'
      XB=51.749,51.949,20.597,25.602,0.000,4.170 /
&OBST ID='IfcWallStandardCase/Basiswand:I_WA_GK_20.0_BW_F90AB:399084'
      XB=37.199,37.399,21.597,25.602,0.000,4.170 /
&OBST ID='IfcWallStandardCase/Basiswand:I_WA_GK_20.0_BW_F90AB:399140'
      XB=41.564,41.764,16.827,19.682,0.000,4.170 /
&OBST ID='IfcWallStandardCase/Basiswand:I_WA_GK_20.0_BW_F90AB:445580'
      XB=37.199,37.399,16.677,20.597,0.000,4.170 /
&OBST ID='IfcWallStandardCase/Basiswand:I_WA_GK_20.0_BW_F90AB:445708'
      XB=37.199,37.399,11.597,15.277,0.000,4.170 /
&OBST ID='IfcWallStandardCase/Basiswand:I_WA_GK_7.0:401126'
      XB=27.449,29.295,36.421,36.491,0.000,2.285 /
&OBST ID='IfcWallStandardCase/Basiswand:I_WA_GK_7.0:401130'
      XB=27.449,29.295,34.896,34.966,0.000,2.285 /
&OBST ID='IfcWallStandardCase/Basiswand:I_WR_MW_11.5:399674'
      XB=37.399,38.499,20.482,20.597,-0.130,4.170 /
&OBST ID='IfcWallStandardCase/Basiswand:I_WR_MW_11.5:399678'
      XB=38.384,38.499,19.682,20.482,-0.130,4.170 /
&OBST ID='IfcWallStandardCase/Basiswand:I_WR_MW_11.5:399682'
      XB=38.499,48.669,19.682,19.797,-0.130,4.170 /
&OBST ID='IfcWallStandardCase/Basiswand:I_WR_MW_17.5:398441'
      XB=24.824,27.174,18.277,18.452,-0.130,4.170 /
&OBST ID='IfcWallStandardCase/Basiswand:I_WR_MW_17.5:400680'
      XB=45.289,45.464,11.597,16.677,-0.130,4.170 /
&OBST ID='IfcWallStandardCase/Basiswand:I_WR_MW_24.0_BW_F90AB:400559'
      XB=43.664,43.904,11.597,15.277,-0.130,4.170 /
&OBST ID='IfcWallStandardCase/Basiswand:I_WR_STB_25.0_F90AB:397951'
      XB=12.174,24.824,21.977,22.227,-0.130,4.170 /
&OBST ID='IfcWallStandardCase/Basiswand:I_WR_STB_25.0_F90AB:397955'
      XB=12.174,24.824,18.277,18.527,-0.130,4.170 /
&OBST ID='IfcWallStandardCase/Basiswand:I_WR_STB_25.0_F90AB:397959'
      XB=24.574,24.824,18.527,21.977,-0.130,4.170 /
&OBST ID='IfcWallStandardCase/Basiswand:I_WR_STB_25.0_F90AB:397963'
      XB=24.824,27.174,20.982,21.232,-0.130,4.170 /
&OBST ID='IfcWallStandardCase/Basiswand:I_WR_STB_25.0_F90AB:397971'
      XB=24.824,27.174,18.832,19.082,-0.130,4.170 /
&OBST ID='IfcWallStandardCase/Basiswand:I_WR_STB_30.0_BW_F90AB:397967'
      XB=27.174,27.474,18.277,22.227,-0.130,4.170 /
&OBST ID='IfcWallStandardCase/Basiswand:I_WR_STB_30.0_BW_F90AB:399876'
      XB=48.669,48.969,11.597,15.202,-0.130,4.170 /
&OBST ID='IfcWallStandardCase/Basiswand:I_WR_STB_30.0_BW_F90AB:454294'
      XB=48.669,48.969,16.677,20.597,-0.130,4.170 /
&OBST ID='IfcWindow/Fensterelement 1-flg:BUW_FENSTER:427063'
      XB=37.399,39.049,11.412,11.522,1.000,2.500 /
&OBST ID='IfcWindow/Fensterelement 1-flg:BUW_FENSTER:427064'
      XB=39.099,40.749,11.412,11.522,1.000,2.500 /
&OBST ID='IfcWindow/Fensterelement 1-flg:BUW_FENSTER:427916'
      XB=52.444,53.874,11.412,11.522,1.000,2.500 /

-- Blender Collection: <IfcBuildingStorey/OG01_OKRD>
&OBST ID='IfcBeam/Unterzug Stahl:A_UZ_HEB200:575851'
      XB=57.090,57.624,17.982,18.182,4.280,4.480 /
&OBST ID='IfcBeam/Unterzug Stahl:A_UZ_HEB200:575979'
      XB=57.090,57.624,16.722,16.922,4.280,4.480 /
&OBST ID='IfcBeam/Unterzug Stahlbeton:I_UZ_STB 80 x 80:616494'
      XB=11.929,34.549,36.577,37.377,3.570,4.170 /
&OBST ID='IfcBeam/Unterzug Stahlbeton:I_UZ_STB 80 x 80:616560'
      XB=11.929,34.549,30.877,31.677,3.570,4.370 /
&OBST ID='IfcBeam/Unterzug Stahlbeton:I_UZ_STB 80 x 80:616612'
      XB=11.929,34.549,25.177,25.977,3.570,4.370 /
&OBST ID='IfcBuildingElementProxy/BUW_ABDECKUNG_SITZBANK:BUW_ABDECKUNG_SI'
      XB=25.929,54.009,26.017,31.032,5.000,5.050 /
&OBST ID='IfcBuildingElementProxy/BUW_AQUARIUM:BUW_AQUARIUM:1022343'
      XB=27.588,28.439,24.435,25.257,5.200,5.600 /
&OBST ID='IfcBuildingElementProxy/BUW_Aufzugstür:1400 x 2640mm:866582'
      XB=24.324,24.574,19.802,21.202,4.500,7.140 /
&OBST ID='IfcBuildingElementProxy/BUW_BEAMER:BUW_BEAMER:998744'
      XB=33.054,33.624,22.917,23.547,7.180,8.170 /
&OBST ID='IfcBuildingElementProxy/BUW_BEAMER:BUW_BEAMER:999068'
      XB=33.054,33.624,20.637,21.267,7.180,8.170 /
&OBST ID='IfcBuildingElementProxy/BUW_BIM_MONITOR:BUW_BIM_MONITOR:904277'
      XB=27.304,27.394,18.967,19.537,5.420,6.280 /
&OBST ID='IfcBuildingElementProxy/BUW_BIM_MONITOR:BUW_BIM_MONITOR:904542'
      XB=27.304,27.394,19.642,20.212,5.420,6.280 /
&OBST ID='IfcBuildingElementProxy/BUW_BIM_MONITOR:BUW_BIM_MONITOR:904563'
      XB=27.304,27.394,20.677,21.247,5.420,6.280 /
&OBST ID='IfcBuildingElementProxy/BUW_BIM_MONITOR:BUW_BIM_MONITOR:904582'
      XB=27.304,27.394,21.637,22.207,5.420,6.280 /
&OBST ID='IfcBuildingElementProxy/BUW_BIM_MONITOR:BUW_BIM_MONITOR:904601'
      XB=27.304,27.394,22.922,23.492,5.420,6.280 /
&OBST ID='IfcBuildingElementProxy/BUW_BIM_MONITOR:BUW_BIM_MONITOR:904620'
      XB=27.304,27.394,23.707,24.277,5.420,6.280 /
&OBST ID='IfcBuildingElementProxy/BUW_BOX:BUW_BOX:1035370'
      XB=38.595,38.849,19.464,19.675,6.890,7.190 /
&OBST ID='IfcBuildingElementProxy/BUW_BOX:BUW_BOX:1036449'
      XB=38.595,38.849,24.524,24.735,6.890,7.190 /
&OBST ID='IfcBuildingElementProxy/BUW_KASTEN:BUW_KASTEN:1036181'
      XB=27.304,27.474,21.307,21.577,5.420,5.865 /
&OBST ID='IfcBuildingElementProxy/BUW_LEINWAND:BUW_LEINWAND:1011192'
      XB=31.659,33.189,18.677,18.886,4.500,6.690 /
&OBST ID='IfcBuildingElementProxy/BUW_MAUS_GEOMETRIE:BUW_MAUS_GEOMETR'
      XB=30.515,30.625,24.147,24.213,5.225,5.260 /
&OBST ID='IfcBuildingElementProxy/BUW_MAUS_GEOMETRIE:BUW_MAUS_GEOMETR.001'
      XB=32.265,32.375,20.947,21.013,5.225,5.260 /
&OBST ID='IfcBuildingElementProxy/BUW_MAUS_GEOMETRIE:BUW_MAUS_GEOMETR.002'
      XB=32.265,32.375,22.547,22.613,5.225,5.260 /
&OBST ID='IfcBuildingElementProxy/BUW_MAUS_GEOMETRIE:BUW_MAUS_GEOMETR.003'
      XB=32.265,32.375,24.147,24.213,5.225,5.260 /
&OBST ID='IfcBuildingElementProxy/BUW_MAUS_GEOMETRIE:BUW_MAUS_GEOMETR.004'
      XB=34.047,34.157,24.147,24.213,5.225,5.260 /
&OBST ID='IfcBuildingElementProxy/BUW_MAUS_GEOMETRIE:BUW_MAUS_GEOMETR.005'
      XB=34.047,34.157,22.547,22.613,5.225,5.260 /
&OBST ID='IfcBuildingElementProxy/BUW_MAUS_GEOMETRIE:BUW_MAUS_GEOMETR.006'
      XB=34.047,34.157,20.947,21.013,5.225,5.260 /
&OBST ID='IfcBuildingElementProxy/BUW_MAUS_GEOMETRIE:BUW_MAUS_GEOMETR.007'
      XB=35.830,35.940,20.947,21.013,5.225,5.260 /
&OBST ID='IfcBuildingElementProxy/BUW_MAUS_GEOMETRIE:BUW_MAUS_GEOMETR.008'
      XB=35.830,35.940,22.547,22.613,5.225,5.260 /
&OBST ID='IfcBuildingElementProxy/BUW_MAUS_GEOMETRIE:BUW_MAUS_GEOMETR.009'
      XB=35.830,35.940,24.147,24.213,5.225,5.260 /
&OBST ID='IfcBuildingElementProxy/BUW_MAUS_GEOMETRIE:BUW_MAUS_GEOMETR.010'
      XB=37.030,37.140,23.455,23.521,5.225,5.260 /
&OBST ID='IfcBuildingElementProxy/BUW_MAUS_GEOMETRIE:BUW_MAUS_GEOMETRIE:1'
      XB=30.515,30.625,22.547,22.613,5.225,5.260 /
&OBST ID='IfcBuildingElementProxy/BUW_MINIATURGEBAEUDE:BUW_MINIATURGEBAEU'
      XB=27.670,28.357,24.524,25.167,5.210,5.340 /
&OBST ID='IfcBuildingElementProxy/BUW_SERVER:BUW_SERVER:1044604'
      XB=36.490,37.320,24.052,24.662,4.500,5.360 /
&OBST ID='IfcBuildingElementProxy/BUW_Stahlprofile_Aufzugschacht:BUW_Stah'
      XB=25.123,25.250,19.332,21.232,4.500,8.500 /
&OBST ID='IfcBuildingElementProxy/BUW_TASTATUR:BUW_TASTATUR:1013961'
      XB=30.495,30.645,21.180,21.652,5.225,5.250 /
&OBST ID='IfcBuildingElementProxy/BUW_TASTATUR:BUW_TASTATUR:1020289'
      XB=30.495,30.645,22.780,23.252,5.225,5.250 /
&OBST ID='IfcBuildingElementProxy/BUW_TASTATUR:BUW_TASTATUR:1020312'
      XB=30.495,30.645,24.380,24.852,5.225,5.250 /
&OBST ID='IfcBuildingElementProxy/BUW_TASTATUR:BUW_TASTATUR:1020385'
      XB=32.245,32.395,21.180,21.652,5.225,5.250 /
&OBST ID='IfcBuildingElementProxy/BUW_TASTATUR:BUW_TASTATUR:1020410'
      XB=32.245,32.395,22.780,23.252,5.225,5.250 /
&OBST ID='IfcBuildingElementProxy/BUW_TASTATUR:BUW_TASTATUR:1020429'
      XB=32.245,32.395,24.380,24.852,5.225,5.250 /
&OBST ID='IfcBuildingElementProxy/BUW_TASTATUR:BUW_TASTATUR:1020452'
      XB=34.027,34.177,24.380,24.852,5.225,5.250 /
&OBST ID='IfcBuildingElementProxy/BUW_TASTATUR:BUW_TASTATUR:1020471'
      XB=34.027,34.177,22.780,23.252,5.225,5.250 /
&OBST ID='IfcBuildingElementProxy/BUW_TASTATUR:BUW_TASTATUR:1020490'
      XB=34.027,34.177,21.180,21.652,5.225,5.250 /
&OBST ID='IfcBuildingElementProxy/BUW_TASTATUR:BUW_TASTATUR:1020546'
      XB=35.810,35.960,21.180,21.652,5.225,5.250 /
&OBST ID='IfcBuildingElementProxy/BUW_TASTATUR:BUW_TASTATUR:1020565'
      XB=35.810,35.960,22.780,23.252,5.225,5.250 /
&OBST ID='IfcBuildingElementProxy/BUW_TASTATUR:BUW_TASTATUR:1020586'
      XB=35.810,35.960,24.380,24.852,5.225,5.250 /
&OBST ID='IfcBuildingElementProxy/BUW_TASTATUR:BUW_TASTATUR:1020741'
      XB=37.010,37.160,22.816,23.288,5.225,5.250 /
&OBST ID='IfcBuildingElementProxy/BUW_TASTATUR:BUW_TASTATUR:1021160'
      XB=27.441,27.708,23.486,23.980,5.420,5.445 /
&OBST ID='IfcBuildingElementProxy/BUW_TFT-Monitor:BUW_TFT-Monitor_420:102'
      XB=27.417,27.764,23.925,24.272,5.420,5.811 /
&OBST ID='IfcBuildingElementProxy/BUW_TFT-Monitor:BUW_TFT-Monitor_560'
      XB=30.854,31.098,21.266,21.828,5.225,5.616 /
&OBST ID='IfcBuildingElementProxy/BUW_TFT-Monitor:BUW_TFT-Monitor_560.001'
      XB=32.604,32.848,24.466,25.028,5.225,5.616 /
&OBST ID='IfcBuildingElementProxy/BUW_TFT-Monitor:BUW_TFT-Monitor_560.002'
      XB=32.604,32.848,22.866,23.428,5.225,5.616 /
&OBST ID='IfcBuildingElementProxy/BUW_TFT-Monitor:BUW_TFT-Monitor_560.003'
      XB=32.604,32.848,21.266,21.828,5.225,5.616 /
&OBST ID='IfcBuildingElementProxy/BUW_TFT-Monitor:BUW_TFT-Monitor_560.004'
      XB=34.387,34.630,24.466,25.028,5.225,5.616 /
&OBST ID='IfcBuildingElementProxy/BUW_TFT-Monitor:BUW_TFT-Monitor_560.005'
      XB=34.387,34.630,22.866,23.428,5.225,5.616 /
&OBST ID='IfcBuildingElementProxy/BUW_TFT-Monitor:BUW_TFT-Monitor_560.006'
      XB=34.387,34.630,21.266,21.828,5.225,5.616 /
&OBST ID='IfcBuildingElementProxy/BUW_TFT-Monitor:BUW_TFT-Monitor_560.007'
      XB=36.169,36.413,24.466,25.028,5.225,5.616 /
&OBST ID='IfcBuildingElementProxy/BUW_TFT-Monitor:BUW_TFT-Monitor_560.008'
      XB=36.169,36.413,22.866,23.428,5.225,5.616 /
&OBST ID='IfcBuildingElementProxy/BUW_TFT-Monitor:BUW_TFT-Monitor_560.009'
      XB=36.169,36.413,21.266,21.828,5.225,5.616 /
&OBST ID='IfcBuildingElementProxy/BUW_TFT-Monitor:BUW_TFT-Monitor_560.010'
      XB=36.552,36.796,22.360,22.922,5.225,5.616 /
&OBST ID='IfcBuildingElementProxy/BUW_TFT-Monitor:BUW_TFT-Monitor_560.011'
      XB=36.518,36.703,22.922,23.482,5.225,5.616 /
&OBST ID='IfcBuildingElementProxy/BUW_TFT-Monitor:BUW_TFT-Monitor_560.012'
      XB=30.854,31.098,22.304,22.866,5.225,5.616 /
&OBST ID='IfcBuildingElementProxy/BUW_TFT-Monitor:BUW_TFT-Monitor_560.013'
      XB=30.854,31.098,20.704,21.266,5.225,5.616 /
&OBST ID='IfcBuildingElementProxy/BUW_TFT-Monitor:BUW_TFT-Monitor_560.014'
      XB=32.604,32.848,23.904,24.466,5.225,5.616 /
&OBST ID='IfcBuildingElementProxy/BUW_TFT-Monitor:BUW_TFT-Monitor_560.015'
      XB=32.604,32.848,22.304,22.866,5.225,5.616 /
&OBST ID='IfcBuildingElementProxy/BUW_TFT-Monitor:BUW_TFT-Monitor_560.016'
      XB=32.604,32.848,20.704,21.266,5.225,5.616 /
&OBST ID='IfcBuildingElementProxy/BUW_TFT-Monitor:BUW_TFT-Monitor_560.017'
      XB=34.387,34.630,23.904,24.466,5.225,5.616 /
&OBST ID='IfcBuildingElementProxy/BUW_TFT-Monitor:BUW_TFT-Monitor_560.018'
      XB=34.387,34.630,22.304,22.866,5.225,5.616 /
&OBST ID='IfcBuildingElementProxy/BUW_TFT-Monitor:BUW_TFT-Monitor_560.019'
! ... 9 like lines cut
&OBST ID='IfcBuildingElementProxy/BUW_TFT-Monitor:BUW_TFT-Monitor_560:899'
      XB=30.854,31.098,23.904,24.466,5.225,5.616 /
&OBST ID='IfcBuildingElementProxy/BUW_TFT-Monitor:BUW_TFT-Monitor_560:900'
      XB=30.854,31.098,24.466,25.028,5.225,5.616 /
&OBST ID='IfcBuildingElementProxy/BUW_TFT-Monitor:BUW_TFT-Monitor_560:902'
      XB=30.854,31.098,22.866,23.428,5.225,5.616 /
&OBST ID='IfcBuildingElementProxy/BUW_WERBETAFEL:BUW_WERBETAFEL:1032930'
      XB=38.774,38.849,18.767,19.472,5.220,6.560 /
&OBST ID='IfcBuildingElementProxy/BUW_WHITEBOARD:BUW_WHITEBOARD:1009183'
      XB=34.361,36.176,18.677,18.817,5.400,6.765 /
&OBST ID='IfcBuildingElementProxy/CPU-Tower:CPU-Tower:1021114'
      XB=27.304,27.785,24.277,24.442,4.500,4.944 /
&OBST ID='IfcBuildingElementProxy/CPU-Tower:CPU-Tower:901925'
      XB=30.388,30.869,25.016,25.181,4.500,4.944 /
&OBST ID='IfcBuildingElementProxy/CPU-Tower:CPU-Tower:902135'
      XB=30.388,30.869,23.416,23.581,4.500,4.944 /
&OBST ID='IfcBuildingElementProxy/CPU-Tower:CPU-Tower:902161'
      XB=30.388,30.869,21.816,21.981,4.500,4.944 /
&OBST ID='IfcBuildingElementProxy/CPU-Tower:CPU-Tower:902192'
      XB=32.138,32.619,25.016,25.181,4.500,4.944 /
&OBST ID='IfcBuildingElementProxy/CPU-Tower:CPU-Tower:902196'
      XB=32.138,32.619,23.416,23.581,4.500,4.944 /
&OBST ID='IfcBuildingElementProxy/CPU-Tower:CPU-Tower:902200'
      XB=32.138,32.619,21.816,21.981,4.500,4.944 /
&OBST ID='IfcBuildingElementProxy/CPU-Tower:CPU-Tower:902224'
      XB=33.921,34.402,25.016,25.181,4.500,4.944 /
&OBST ID='IfcBuildingElementProxy/CPU-Tower:CPU-Tower:902228'
      XB=33.921,34.402,23.416,23.581,4.500,4.944 /
&OBST ID='IfcBuildingElementProxy/CPU-Tower:CPU-Tower:902232'
      XB=33.921,34.402,21.816,21.981,4.500,4.944 /
&OBST ID='IfcBuildingElementProxy/CPU-Tower:CPU-Tower:902262'
      XB=35.703,36.184,25.016,25.181,4.500,4.944 /
&OBST ID='IfcBuildingElementProxy/CPU-Tower:CPU-Tower:902266'
      XB=35.703,36.184,23.416,23.581,4.500,4.944 /
&OBST ID='IfcBuildingElementProxy/CPU-Tower:CPU-Tower:902270'
      XB=35.703,36.184,21.816,21.981,4.500,4.944 /
&OBST ID='IfcBuildingElementProxy/CPU-Tower:CPU-Tower:902443'
      XB=36.785,37.267,23.752,23.917,4.500,4.944 /
&OBST ID='IfcBuildingElementProxy/CPU-Tower:CPU-Tower:902492'
      XB=36.785,37.267,22.487,22.652,4.500,4.944 /
&OBST ID='IfcBuildingElementProxy/Heizkörper - Flachheizkörper:600 '
      XB=35.092,37.761,25.277,25.427,4.500,5.250 /
&OBST ID='IfcBuildingElementProxy/Heizkörper - Flachheizkörper:600 x 25'
      XB=29.122,31.791,25.277,25.427,4.500,5.250 /
&OBST ID='IfcBuildingElementProxy/Tischkopierer:Tischkopierer:1037781'
      XB=36.238,37.274,21.810,22.343,4.500,5.044 /
&OBST ID='IfcColumn/Stütze Stahlbeton:I_ST_STB_d=30:519832'
      XB=12.379,12.679,36.827,37.127,4.370,7.670 /
&OBST ID='IfcColumn/Stütze Stahlbeton:I_ST_STB_d=30:520126'
      XB=12.379,12.679,31.127,31.427,4.370,7.670 /
&OBST ID='IfcColumn/Stütze Stahlbeton:I_ST_STB_d=30:520141'
      XB=12.379,12.679,25.427,25.727,4.370,7.670 /
&OBST ID='IfcColumn/Stütze Stahlbeton:I_ST_STB_d=30:520164'
      XB=25.229,25.529,25.427,25.727,4.370,7.670 /
&OBST ID='IfcColumn/Stütze Stahlbeton:I_ST_STB_d=30:520179'
      XB=25.229,25.529,31.127,31.427,4.370,7.670 /
&OBST ID='IfcColumn/Stütze Stahlbeton:I_ST_STB_d=30:520194'
      XB=25.229,25.529,36.827,37.127,4.370,7.670 /
&OBST ID='IfcColumn/Stütze Stahlbeton:I_ST_STB_d=30:520209'
      XB=33.899,34.199,31.127,31.427,4.370,7.670 /
&OBST ID='IfcColumn/Stütze Stahlbeton:I_ST_STB_d=30:520222'
      XB=33.899,34.199,36.827,37.127,4.370,7.670 /
&OBST ID='IfcColumn/Stütze Stahlbeton:I_ST_STB_d=30:520239'
      XB=41.159,41.459,36.827,37.127,4.370,8.170 /
&OBST ID='IfcColumn/Stütze Stahlbeton:I_ST_STB_d=30:520252'
      XB=41.159,41.459,31.127,31.427,4.370,8.170 /
&OBST ID='IfcColumn/Stütze Stahlbeton:I_ST_STB_d=30:520267'
      XB=48.419,48.719,31.127,31.427,4.370,8.170 /
&OBST ID='IfcColumn/Stütze Stahlbeton:I_ST_STB_d=30:520280'
      XB=48.419,48.719,36.827,37.127,4.370,8.170 /
&OBST ID='IfcColumn/Stütze Stahlbeton:I_ST_STB_d=30:520295'
      XB=54.499,54.799,36.827,37.127,4.370,8.170 /
&OBST ID='IfcColumn/Stütze Stahlbeton:I_ST_STB_d=30:520310'
      XB=54.499,54.799,31.127,31.427,4.370,8.170 /
&OBST ID='IfcColumn/Stütze Stahlbeton:I_ST_STB_d=30:520325'
      XB=54.499,54.799,25.427,25.727,4.370,8.040 /
&OBST ID='IfcColumn/Stütze Stahlbeton:I_ST_STB_d=30:520338'
      XB=54.499,54.799,18.477,18.777,4.370,8.170 /
&OBST ID='IfcColumn/Stütze Stahlbeton:I_ST_STB_d=30:520351'
      XB=54.499,54.799,12.127,12.427,4.370,8.170 /
&OBST ID='IfcColumn/Stütze Stahlbeton:I_ST_STB_d=30:520374'
      XB=48.419,48.719,18.477,18.777,4.370,8.170 /
&OBST ID='IfcColumn/Stütze Stahlbeton:I_ST_STB_d=30:520391'
      XB=41.159,41.459,12.127,12.427,4.370,8.170 /
&OBST ID='IfcColumn/Stütze Stahlbeton:I_ST_STB_d=30:520406'
! ... 11 like lines cut
&OBST ID='IfcCovering/Basisdecke:I_DE-A_GK:732482'
      XB=21.362,25.317,33.177,38.877,8.170,8.170 /
&OBST ID='IfcCovering/Basisdecke:I_DE-A_GK:734507'
      XB=25.442,33.987,33.177,38.877,8.170,8.170 /
&OBST ID='IfcCovering/Basisdecke:I_DE-A_GK:734660'
      XB=34.112,41.247,33.177,38.877,8.170,8.170 /
&OBST ID='IfcCovering/Basisdecke:I_DE-A_GK:734851'
      XB=41.372,48.507,33.177,38.877,8.170,8.170 /
&OBST ID='IfcCovering/Basisdecke:I_DE-A_GK:734889'
      XB=48.632,56.549,33.177,38.877,8.170,8.170 /
&OBST ID='IfcCovering/Basisdecke:I_DE-A_GK:735146'
      XB=39.029,53.675,18.677,25.477,8.170,8.170 /
&OBST ID='IfcCovering/Basisdecke:I_DE-A_GK:735202'
      XB=27.304,38.849,18.677,25.477,8.170,8.170 /
&OBST ID='IfcCovering/Basisdecke:I_DE-A_GK:735641'
      XB=10.402,19.599,10.377,16.327,8.170,8.170 /
&OBST ID='IfcCovering/Basisdecke:I_DE-A_GK:735802'
      XB=19.774,26.874,10.377,16.327,8.170,8.170 /
&OBST ID='IfcCovering/Basisdecke:I_DE-A_GK:735847'
      XB=27.049,31.037,10.377,16.327,8.170,8.170 /
&OBST ID='IfcCovering/Basisdecke:I_DE-A_GK:735880'
      XB=31.162,33.987,10.377,16.327,8.170,8.170 /
&OBST ID='IfcCovering/Basisdecke:I_DE-A_GK:735914'
      XB=34.112,41.247,10.377,16.327,8.170,8.170 /
&OBST ID='IfcCovering/Basisdecke:I_DE-A_GK:735947'
      XB=41.372,45.590,10.377,16.327,8.170,8.170 /
&OBST ID='IfcCovering/Basisdecke:I_DE-A_GK:740476'
      XB=9.220,21.187,30.797,38.877,8.170,8.170 /
&OBST ID='IfcCovering/Basisdecke:I_DE-A_GK:740575'
      XB=9.643,21.187,22.477,30.797,8.170,8.170 /
&OBST ID='IfcCovering/Basisdecke:I_DE-A_GK:787817'
      XB=21.424,28.358,22.477,33.027,8.170,8.170 /
&OBST ID='IfcCovering/Basisdecke:I_DE-A_GK:788264'
      XB=28.388,56.549,29.989,33.027,8.170,8.170 /
&OBST ID='IfcCovering/Basisdecke:I_DE-A_GK:788511'
      XB=53.624,56.549,16.477,29.959,8.170,8.170 /
&OBST ID='IfcCovering/Basisdecke:I_DE-A_GK:788672'
      XB=10.286,53.779,16.477,18.527,8.170,8.170 /
&OBST ID='IfcCovering/Basisdecke:I_DE-A_GK_2.5:741638'
      XB=45.740,48.419,10.377,12.602,7.765,7.765 /
&OBST ID='IfcCovering/Basisdecke:I_DE-A_GK_2.5:775555'
      XB=45.740,48.419,12.727,14.827,7.765,7.765 /
&OBST ID='IfcCovering/Basisdecke:I_DE-A_GK_2.5:781460'
      XB=48.719,50.195,10.377,16.327,7.765,7.765 /
&OBST ID='IfcCovering/Basisdecke:I_DE-A_GK_2.5:782353'
      XB=50.320,52.415,13.352,16.327,7.765,7.765 /
&OBST ID='IfcCovering/Basisdecke:I_DE-A_GK_2.5:782398'
      XB=52.515,55.145,13.477,16.327,7.765,7.765 /
&OBST ID='IfcCovering/Basisdecke:I_DE-A_GK_2.5:782431'
      XB=55.245,56.549,12.279,16.327,7.765,7.765 /
&OBST ID='IfcCovering/Basisdecke:I_DE-A_GK_2.5:782464'
      XB=50.320,52.415,10.377,13.127,7.765,7.765 /
&OBST ID='IfcCovering/Basisdecke:I_DE-A_GK_2.5:782508'
      XB=52.515,56.324,10.377,13.127,7.765,7.765 /
&OBST ID='IfcCovering/Basisdecke:I_DE-S_GK_2.5:732806'
      XB=21.720,25.148,33.314,38.139,7.680,7.680 /
&OBST ID='IfcCovering/Basisdecke:I_DE-S_GK_2.5:732924'
      XB=25.897,33.552,33.314,38.139,7.680,7.680 /
&OBST ID='IfcCovering/Basisdecke:I_DE-S_GK_2.5:733103'
      XB=35.239,40.119,33.839,38.214,7.680,7.680 /
&OBST ID='IfcCovering/Basisdecke:I_DE-S_GK_2.5:733165'
      XB=42.499,47.379,33.839,38.214,7.680,7.680 /
&OBST ID='IfcCovering/Basisdecke:I_DE-S_GK_2.5:733223'
      XB=49.759,55.914,33.839,38.214,7.680,7.680 /
&OBST ID='IfcCovering/Basisdecke:I_DE-S_GK_2.5:733309'
      XB=28.174,36.489,19.577,24.577,7.680,7.680 /
&OBST ID='IfcCovering/Basisdecke:I_DE-S_GK_2.5:733398'
      XB=39.464,51.009,19.577,24.577,7.680,7.680 /
&OBST ID='IfcCovering/Basisdecke:I_DE-S_GK_2.5:733609'
      XB=41.665,45.295,11.477,15.227,7.680,7.680 /
&OBST ID='IfcCovering/Basisdecke:I_DE-S_GK_2.5:733674'
      XB=34.841,40.753,11.477,15.227,7.680,7.680 /
&OBST ID='IfcCovering/Basisdecke:I_DE-S_GK_2.5:733747'
      XB=31.542,33.797,11.477,15.227,7.680,7.680 /
&OBST ID='IfcCovering/Basisdecke:I_DE-S_GK_2.5:733788'
      XB=27.350,30.801,11.477,15.227,7.680,7.680 /
&OBST ID='IfcCovering/Basisdecke:I_DE-S_GK_2.5:733845'
      XB=20.979,25.859,11.164,15.539,7.680,7.680 /
&OBST ID='IfcCovering/Basisdecke:I_DE-S_GK_2.5:733935'
      XB=11.904,18.599,11.164,15.539,7.680,7.680 /
&OBST ID='IfcCovering/Basisdecke:I_DE-S_GK_2.5:734008'
      XB=11.879,20.415,23.021,30.614,7.740,7.740 /
&OBST ID='IfcCovering/Basisdecke:I_DE-S_GK_2.5:734212'
      XB=10.075,20.415,31.939,38.264,7.740,7.740 /
&OBST ID='IfcDoor/A_PR 1-flg - Drehflügel - Füllung:xxx:513601'
      XB=26.349,26.539,27.372,28.612,5.050,8.120 /
&OBST ID='IfcDoor/A_PR 1-flg - Drehflügel - Füllung:xxx:514673'
      XB=53.399,53.589,27.373,28.613,5.050,8.120 /
&OBST ID='IfcDoor/A_PR 2-flg - Drehflügel - Füllelement:xxx:515227'
      XB=54.009,56.549,29.879,30.069,4.500,6.635 /
&OBST ID='IfcDoor/A_PR 2-flg - Drehflügel - Füllelement:xxx:783580'
      XB=53.699,53.889,16.477,18.527,4.500,6.635 /
&OBST ID='IfcDoor/A_PR 2-flg - Drehflügel - Füllelement:xxx:787150'
      XB=28.278,28.468,31.032,33.027,4.500,6.635 /
&OBST ID='IfcDoor/I_DT 1-flg - Stahlzarge - Glasfüllung:A_1.36 / 2.18:52'
      XB=56.464,57.104,16.747,18.156,4.500,6.704 /
&OBST ID='IfcDoor/I_DT 1-flg - Stahlzarge:1.01 x 2.135:482222'
      XB=31.462,32.521,33.012,33.262,4.500,6.659 /
&OBST ID='IfcDoor/I_DT 1-flg - Stahlzarge:1.01 x 2.135:482325'
      XB=23.235,24.294,33.012,33.262,4.500,6.659 /
&OBST ID='IfcDoor/I_DT 1-flg - Stahlzarge:1.01 x 2.135:482373'
      XB=37.163,38.221,33.012,33.262,4.500,6.659 /
&OBST ID='IfcDoor/I_DT 1-flg - Stahlzarge:1.01 x 2.135:482463'
      XB=44.409,45.468,33.012,33.262,4.500,6.659 /
&OBST ID='IfcDoor/I_DT 1-flg - Stahlzarge:1.01 x 2.135:482499'
      XB=52.060,53.119,33.012,33.262,4.500,6.659 /
&OBST ID='IfcDoor/I_DT 1-flg - Stahlzarge:1.01 x 2.135:482523'
      XB=21.172,21.509,31.492,32.551,4.500,6.659 /
&OBST ID='IfcDoor/I_DT 1-flg - Stahlzarge:1.01 x 2.135:482605'
      XB=21.172,21.509,23.447,24.506,4.500,6.659 /
&OBST ID='IfcDoor/I_DT 1-flg - Stahlzarge:1.01 x 2.135:482666'
      XB=17.567,18.626,16.242,16.492,4.500,6.659 /
&OBST ID='IfcDoor/I_DT 1-flg - Stahlzarge:1.01 x 2.135:482693'
      XB=24.840,25.899,16.242,16.492,4.500,6.659 /
&OBST ID='IfcDoor/I_DT 1-flg - Stahlzarge:1.01 x 2.135:482737'
      XB=28.095,29.154,16.242,16.492,4.500,6.659 /
&OBST ID='IfcDoor/I_DT 1-flg - Stahlzarge:1.01 x 2.135:482775'
      XB=32.045,33.104,16.242,16.492,4.500,6.659 /
&OBST ID='IfcDoor/I_DT 1-flg - Stahlzarge:1.01 x 2.135:482853'
      XB=35.087,36.146,16.242,16.492,4.500,6.659 /
&OBST ID='IfcDoor/I_DT 1-flg - Stahlzarge:1.01 x 2.135:482889'
      XB=42.951,44.010,16.242,16.492,4.500,6.659 /
&OBST ID='IfcDoor/I_DT 1-flg - Stahlzarge:1.01 x 2.135:483075'
      XB=51.390,52.449,18.442,18.692,4.500,6.659 /
&OBST ID='IfcDoor/I_DT 1-flg - Stahlzarge:1.01 x 2.135:483174'
      XB=44.411,45.470,18.442,18.692,4.500,6.659 /
&OBST ID='IfcDoor/I_DT 1-flg - Stahlzarge:1.01 x 2.135:483242'
      XB=37.185,38.244,18.442,18.692,4.500,6.659 /
&OBST ID='IfcDoor/I_DT 1-flg - Stahlzarge:1.01 x 2.135:483430'
      XB=30.952,31.177,14.592,15.651,4.500,6.659 /
&OBST ID='IfcDoor/I_DT 1-flg - Stahlzarge:1.01 x 2.135:517216'
      XB=47.235,48.294,12.587,12.812,4.500,6.659 /
&OBST ID='IfcDoor/I_DT 1-flg - Stahlzarge:1.01 x 2.135:517443'
      XB=33.902,34.127,14.592,15.651,4.500,6.659 /
&OBST ID='IfcDoor/I_DT 1-flg - Stahlzarge:1.01 x 2.135:517588'
! ... 21 like lines cut
&OBST ID='IfcDoor/I_HST 3-flg:2.90-2.135:599015'
      XB=21.384,24.364,22.212,22.492,4.500,6.675 /
&OBST ID='IfcDoor/I_HST 3-flg:2.90-2.135:599044'
      XB=21.384,24.364,18.512,18.792,4.500,6.675 /
&OBST ID='IfcFlowTerminal/BUW_Waschbecken:BUW_WASCHBECKEN_B-H-T_600-125-6'
      XB=38.249,38.849,24.649,25.249,5.180,5.345 /
&OBST ID='IfcFlowTerminal/Deckenleuchte (1):BUW_3750mm:736086'
      XB=27.792,28.630,11.223,15.480,7.240,8.170 /
&OBST ID='IfcFlowTerminal/Deckenleuchte (1):BUW_3750mm:736170'
      XB=29.520,30.359,11.223,15.480,7.240,8.170 /
&OBST ID='IfcFlowTerminal/Deckenleuchte (1):BUW_3750mm:736193'
      XB=30.932,31.771,11.223,15.480,7.240,8.170 /
&OBST ID='IfcFlowTerminal/Deckenleuchte (1):BUW_3750mm:736208'
      XB=32.562,33.401,11.223,15.480,7.240,8.170 /
&OBST ID='IfcFlowTerminal/Deckenleuchte (1):BUW_3750mm:736227'
      XB=34.155,34.994,11.223,15.480,7.240,8.170 /
&OBST ID='IfcFlowTerminal/Deckenleuchte (1):BUW_3750mm:736244'
      XB=35.938,36.776,11.223,15.480,7.240,8.170 /
&OBST ID='IfcFlowTerminal/Deckenleuchte (1):BUW_3750mm:736261'
      XB=37.753,38.591,11.223,15.480,7.240,8.170 /
&OBST ID='IfcFlowTerminal/Deckenleuchte (1):BUW_3750mm:736280'
      XB=39.568,40.406,11.223,15.480,7.240,8.170 /
&OBST ID='IfcFlowTerminal/Deckenleuchte (1):BUW_3750mm:736301'
      XB=42.153,42.992,11.223,15.480,7.240,8.170 /
&OBST ID='IfcFlowTerminal/Deckenleuchte (1):BUW_3750mm:736320'
      XB=43.968,44.807,11.223,15.480,7.240,8.170 /
&OBST ID='IfcFlowTerminal/Deckenleuchte (1):BUW_4375mm:734754'
      XB=34.537,35.376,33.585,38.468,7.240,8.170 /
&OBST ID='IfcFlowTerminal/Deckenleuchte (1):BUW_4375mm:734773'
      XB=36.352,37.191,33.585,38.468,7.240,8.170 /
&OBST ID='IfcFlowTerminal/Deckenleuchte (1):BUW_4375mm:734794'
      XB=38.167,39.006,33.585,38.468,7.240,8.170 /
&OBST ID='IfcFlowTerminal/Deckenleuchte (1):BUW_4375mm:734809'
      XB=39.982,40.821,33.585,38.468,7.240,8.170 /
&OBST ID='IfcFlowTerminal/Deckenleuchte (1):BUW_4375mm:734944'
      XB=41.797,42.636,33.585,38.468,7.240,8.170 /
&OBST ID='IfcFlowTerminal/Deckenleuchte (1):BUW_4375mm:734961'
      XB=43.612,44.451,33.585,38.468,7.240,8.170 /
&OBST ID='IfcFlowTerminal/Deckenleuchte (1):BUW_4375mm:734978'
      XB=45.427,46.266,33.585,38.468,7.240,8.170 /
&OBST ID='IfcFlowTerminal/Deckenleuchte (1):BUW_4375mm:735003'
      XB=47.242,48.081,33.585,38.468,7.240,8.170 /
&OBST ID='IfcFlowTerminal/Deckenleuchte (1):BUW_4375mm:735024'
      XB=49.057,49.896,33.585,38.468,7.240,8.170 /
&OBST ID='IfcFlowTerminal/Deckenleuchte (1):BUW_4375mm:735043'
! ... 81 like lines cut
&OBST ID='IfcFlowTerminal/Mischbatterie (1):Mischbatterie (1):894083'
      XB=38.521,38.684,24.924,24.974,5.305,5.452 /
&OBST ID='IfcFlowTerminal/NBS_WallgateLtd_WlHngUrnls_CWD-01:CWD-01:778941'
      XB=53.170,53.320,12.800,13.339,5.257,5.925 /
&OBST ID='IfcFlowTerminal/NBS_WallgateLtd_WlHngUrnls_CWD-01:CWD-01:779231'
      XB=53.920,54.070,12.800,13.339,5.257,5.925 /
&OBST ID='IfcFlowTerminal/NBS_iGuzziniIlluminazioneUKLtd_GnrlPrpseLmn.053'
      XB=47.247,47.511,10.670,10.934,7.685,7.765 /
&OBST ID='IfcFlowTerminal/NBS_iGuzziniIlluminazioneUKLtd_GnrlPrpseLmn.054'
      XB=47.247,47.511,12.045,12.309,7.685,7.765 /
&OBST ID='IfcFlowTerminal/NBS_iGuzziniIlluminazioneUKLtd_GnrlPrpseLmn.055'
      XB=49.325,49.589,13.970,14.234,7.685,7.765 /
&OBST ID='IfcFlowTerminal/NBS_iGuzziniIlluminazioneUKLtd_GnrlPrpseLmn.056'
      XB=49.325,49.589,10.670,10.934,7.685,7.765 /
&OBST ID='IfcFlowTerminal/NBS_iGuzziniIlluminazioneUKLtd_GnrlPrpseLmn.057'
      XB=49.325,49.589,12.320,12.584,7.685,7.765 /
&OBST ID='IfcFlowTerminal/NBS_iGuzziniIlluminazioneUKLtd_GnrlPrpseLmn.058'
      XB=49.325,49.589,15.619,15.883,7.685,7.765 /
&OBST ID='IfcFlowTerminal/NBS_iGuzziniIlluminazioneUKLtd_GnrlPrpseLmn.059'
      XB=51.412,51.676,15.620,15.884,7.685,7.765 /
&OBST ID='IfcFlowTerminal/NBS_iGuzziniIlluminazioneUKLtd_GnrlPrpseLmn.060'
      XB=51.412,51.676,13.970,14.234,7.685,7.765 /
&OBST ID='IfcFlowTerminal/NBS_iGuzziniIlluminazioneUKLtd_GnrlPrpseLmn.061'
      XB=52.807,53.071,15.620,15.884,7.685,7.765 /
&OBST ID='IfcFlowTerminal/NBS_iGuzziniIlluminazioneUKLtd_GnrlPrpseLmn.062'
      XB=52.807,53.071,14.420,14.684,7.685,7.765 /
&OBST ID='IfcFlowTerminal/NBS_iGuzziniIlluminazioneUKLtd_GnrlPrpseLmn.063'
      XB=53.697,53.961,14.420,14.684,7.685,7.765 /
&OBST ID='IfcFlowTerminal/NBS_iGuzziniIlluminazioneUKLtd_GnrlPrpseLmn.064'
      XB=54.587,54.851,14.420,14.684,7.685,7.765 /
&OBST ID='IfcFlowTerminal/NBS_iGuzziniIlluminazioneUKLtd_GnrlPrpseLmn.065'
      XB=54.587,54.851,15.620,15.884,7.685,7.765 /
&OBST ID='IfcFlowTerminal/NBS_iGuzziniIlluminazioneUKLtd_GnrlPrpseLmn.066'
      XB=51.412,51.676,12.320,12.584,7.685,7.765 /
&OBST ID='IfcFlowTerminal/NBS_iGuzziniIlluminazioneUKLtd_GnrlPrpseLmn.067'
      XB=51.412,51.676,10.670,10.934,7.685,7.765 /
&OBST ID='IfcFlowTerminal/NBS_iGuzziniIlluminazioneUKLtd_GnrlPrpseLmn.068'
      XB=53.481,53.745,12.320,12.584,7.685,7.765 /
&OBST ID='IfcFlowTerminal/NBS_iGuzziniIlluminazioneUKLtd_GnrlPrpseLmn.069'
      XB=53.481,53.745,10.670,10.934,7.685,7.765 /
&OBST ID='IfcFlowTerminal/NBS_iGuzziniIlluminazioneUKLtd_GnrlPrpseLmn.070'
      XB=55.151,55.415,10.670,10.934,7.685,7.765 /
&OBST ID='IfcFlowTerminal/NBS_iGuzziniIlluminazioneUKLtd_GnrlPrpseLmn.071'
      XB=55.151,55.415,11.553,11.817,7.685,7.765 /
&OBST ID='IfcFlowTerminal/NBS_iGuzziniIlluminazioneUKLtd_GnrlPrpseLmn.072'
! ... 71 like lines cut
&OBST ID='IfcFlowTerminal/Spüle - Klein - 1 Becken:790 x 500mm:748973'
      XB=45.790,46.290,11.756,12.548,5.200,5.593 /
&OBST ID='IfcFlowTerminal/Urinal mit automatischer Spülung:Standard:.003'
      XB=54.180,54.560,12.763,13.127,5.165,6.060 /
&OBST ID='IfcFlowTerminal/Urinal mit automatischer Spülung:Standard:7787'
      XB=53.430,53.810,12.763,13.127,5.165,6.060 /
&OBST ID='IfcFlowTerminal/Urinal mit automatischer Spülung:Standard:7794'
      XB=52.680,53.060,12.763,13.127,5.165,6.060 /
&OBST ID='IfcFlowTerminal/WC mit Unterputz-Spülkasten Betätigung vo.014'
      XB=55.774,56.436,11.442,11.867,4.544,5.444 /
&OBST ID='IfcFlowTerminal/WC mit Unterputz-Spülkasten Betätigung vo.015'
      XB=55.774,56.436,10.552,10.977,4.544,5.444 /
&OBST ID='IfcFlowTerminal/WC mit Unterputz-Spülkasten Betätigung vo.016'
      XB=53.579,54.004,13.365,14.027,4.544,5.444 /
&OBST ID='IfcFlowTerminal/WC mit Unterputz-Spülkasten Betätigung vo.017'
      XB=54.469,54.894,13.365,14.027,4.544,5.444 /
&OBST ID='IfcFlowTerminal/WC mit Unterputz-Spülkasten Betätigung vo.018'
      XB=52.689,53.114,13.365,14.027,4.544,5.444 /
&OBST ID='IfcFlowTerminal/Waschtisch:BUW_87x35cm:779497'
      XB=50.675,51.545,12.777,13.127,5.276,5.700 /
&OBST ID='IfcFlowTerminal/Waschtisch:BUW_87x35cm:779701'
      XB=51.545,52.415,12.777,13.127,5.276,5.700 /
&OBST ID='IfcFlowTerminal/Waschtisch:BUW_87x35cm:779737'
      XB=50.675,51.545,13.352,13.702,5.276,5.700 /
&OBST ID='IfcFlowTerminal/Waschtisch:BUW_87x35cm:779738'
      XB=51.545,52.415,13.352,13.702,5.276,5.700 /
&OBST ID='IfcFurnishingElement/Arbeitsplatte - Rechteckig:BUW_40mm_Ho'
      XB=27.588,28.439,24.435,25.257,5.160,5.200 /
&OBST ID='IfcFurnishingElement/Arbeitsplatte - Rechteckig:BUW_40mm_Holz-D'
      XB=27.304,27.849,18.677,24.277,5.380,5.420 /
&OBST ID='IfcFurnishingElement/BUW_ELEMENTSCHRANK:BUW_ELEMENTSCHRANK_'
      XB=27.304,27.824,18.997,19.657,4.500,5.380 /
&OBST ID='IfcFurnishingElement/BUW_ELEMENTSCHRANK:BUW_ELEMENTSCHRANK_.001'
      XB=27.304,27.824,20.317,20.977,4.500,5.380 /
&OBST ID='IfcFurnishingElement/BUW_ELEMENTSCHRANK:BUW_ELEMENTSCHRANK_.002'
      XB=27.304,27.824,21.637,22.297,4.500,5.380 /
&OBST ID='IfcFurnishingElement/BUW_ELEMENTSCHRANK:BUW_ELEMENTSCHRANK_.003'
      XB=27.304,27.824,22.957,23.617,4.500,5.380 /
&OBST ID='IfcFurnishingElement/BUW_ELEMENTSCHRANK:BUW_ELEMENTSCHRANK_.004'
      XB=27.304,27.839,19.657,20.317,4.500,5.380 /
&OBST ID='IfcFurnishingElement/BUW_ELEMENTSCHRANK:BUW_ELEMENTSCHRANK_.005'
      XB=27.304,27.839,20.977,21.637,4.500,5.380 /
&OBST ID='IfcFurnishingElement/BUW_ELEMENTSCHRANK:BUW_ELEMENTSCHRANK_.006'
      XB=27.304,27.839,22.297,22.957,4.500,5.380 /
&OBST ID='IfcFurnishingElement/BUW_ELEMENTSCHRANK:BUW_ELEMENTSCHRANK_.007'
      XB=27.304,27.839,23.617,24.277,4.500,5.380 /
&OBST ID='IfcFurnishingElement/BUW_ELEMENTSCHRANK:BUW_ELEMENTSCHRANK_.008'
      XB=27.885,28.421,24.723,25.257,4.500,5.160 /
&OBST ID='IfcFurnishingElement/BUW_ELEMENTSCHRANK:BUW_ELEMENTSCHRANK_.009'
      XB=27.588,28.124,24.455,24.989,4.500,5.160 /
&OBST ID='IfcFurnishingElement/BUW_ELEMENTSCHRANK:BUW_ELEMENTSCHRANK_B-H-'
      XB=27.304,27.824,18.677,18.997,4.500,5.380 /
&OBST ID='IfcFurnishingElement/BUW_Küchenelement (1) - 2-flg - für Spü'
      XB=45.740,46.343,11.702,12.602,4.500,5.442 /
&OBST ID='IfcFurnishingElement/BUW_Oberschrank - einflügelige Tür:B'
      XB=45.740,46.178,10.802,11.252,6.000,6.850 /
&OBST ID='IfcFurnishingElement/BUW_Oberschrank - einflügelige Tür:B.003'
      XB=45.740,46.178,12.152,12.602,6.000,6.850 /
&OBST ID='IfcFurnishingElement/BUW_Oberschrank - einflügelige Tür:B.004'
      XB=45.740,46.178,11.252,11.702,6.000,6.850 /
&OBST ID='IfcFurnishingElement/BUW_Oberschrank - einflügelige Tür:B.007'
      XB=45.740,46.178,10.377,10.802,6.000,6.850 /
&OBST ID='IfcFurnishingElement/BUW_Oberschrank - einflügelige Tür:BUW_D'
      XB=45.740,46.178,11.702,12.152,6.000,6.850 /
&OBST ID='IfcFurnishingElement/BUW_SCHIEBESCHRANK:BUW_SCHIEBESCHRANK:1002'
      XB=28.622,29.661,24.685,25.215,4.500,6.295 /
&OBST ID='IfcFurnishingElement/BUW_SCHREIBTISCH:BUW_SCHREIBTISCH:898148'
      XB=30.345,31.145,23.666,25.266,4.500,5.225 /
&OBST ID='IfcFurnishingElement/BUW_SCHREIBTISCH:BUW_SCHREIBTISCH:898387'
      XB=30.345,31.145,22.066,23.666,4.500,5.225 /
&OBST ID='IfcFurnishingElement/BUW_SCHREIBTISCH:BUW_SCHREIBTISCH:898412'
      XB=30.345,31.145,20.466,22.066,4.500,5.225 /
&OBST ID='IfcFurnishingElement/BUW_SCHREIBTISCH:BUW_SCHREIBTISCH:898498'
      XB=32.095,32.895,23.666,25.266,4.500,5.225 /
&OBST ID='IfcFurnishingElement/BUW_SCHREIBTISCH:BUW_SCHREIBTISCH:898499'
      XB=32.095,32.895,22.066,23.666,4.500,5.225 /
&OBST ID='IfcFurnishingElement/BUW_SCHREIBTISCH:BUW_SCHREIBTISCH:898500'
      XB=32.095,32.895,20.466,22.066,4.500,5.225 /
&OBST ID='IfcFurnishingElement/BUW_SCHREIBTISCH:BUW_SCHREIBTISCH:898521'
      XB=33.877,34.677,23.666,25.266,4.500,5.225 /
&OBST ID='IfcFurnishingElement/BUW_SCHREIBTISCH:BUW_SCHREIBTISCH:898522'
      XB=33.877,34.677,22.066,23.666,4.500,5.225 /
&OBST ID='IfcFurnishingElement/BUW_SCHREIBTISCH:BUW_SCHREIBTISCH:898523'
      XB=33.877,34.677,20.466,22.066,4.500,5.225 /
&OBST ID='IfcFurnishingElement/BUW_SCHREIBTISCH:BUW_SCHREIBTISCH:898542'
      XB=35.660,36.460,23.666,25.266,4.500,5.225 /
&OBST ID='IfcFurnishingElement/BUW_SCHREIBTISCH:BUW_SCHREIBTISCH:898543'
      XB=35.660,36.460,22.066,23.666,4.500,5.225 /
&OBST ID='IfcFurnishingElement/BUW_SCHREIBTISCH:BUW_SCHREIBTISCH:898544'
      XB=35.660,36.460,20.466,22.066,4.500,5.225 /
&OBST ID='IfcFurnishingElement/BUW_SCHREIBTISCH:BUW_SCHREIBTISCH:898578'
      XB=36.510,37.310,22.402,24.002,4.500,5.225 /
&OBST ID='IfcFurnishingElement/Küchenelement (1) - 2 Schubläden:BUW_600'
      XB=45.740,46.340,10.377,10.802,4.500,5.442 /
&OBST ID='IfcFurnishingElement/Küchenelement (1) - 2-flg:BUW_600 x 900 x'
      XB=45.740,46.343,10.802,11.702,4.500,5.442 /
&OBST ID='IfcFurnishingElement/Schrank (2) - Sockel -Doppeltür:80 x 42.5'
      XB=38.404,38.849,23.806,24.606,4.500,5.750 /
&OBST ID='IfcFurnishingElement/Stuhl (3):Sessel:1052869'
      XB=37.310,37.822,22.980,23.425,4.500,5.317 /
&OBST ID='IfcFurnishingElement/Stuhl (3):Sessel:902008'
      XB=29.833,30.345,24.243,24.688,4.500,5.317 /
&OBST ID='IfcFurnishingElement/Stuhl (3):Sessel:902136'
      XB=29.833,30.345,22.643,23.088,4.500,5.317 /
&OBST ID='IfcFurnishingElement/Stuhl (3):Sessel:902162'
      XB=29.833,30.345,21.043,21.488,4.500,5.317 /
&OBST ID='IfcFurnishingElement/Stuhl (3):Sessel:902193'
      XB=31.583,32.095,24.243,24.688,4.500,5.317 /
&OBST ID='IfcFurnishingElement/Stuhl (3):Sessel:902197'
      XB=31.583,32.095,22.643,23.088,4.500,5.317 /
&OBST ID='IfcFurnishingElement/Stuhl (3):Sessel:902201'
      XB=31.583,32.095,21.043,21.488,4.500,5.317 /
&OBST ID='IfcFurnishingElement/Stuhl (3):Sessel:902225'
      XB=33.365,33.877,24.243,24.688,4.500,5.317 /
&OBST ID='IfcFurnishingElement/Stuhl (3):Sessel:902229'
      XB=33.365,33.877,22.643,23.088,4.500,5.317 /
&OBST ID='IfcFurnishingElement/Stuhl (3):Sessel:902233'
      XB=33.365,33.877,21.043,21.488,4.500,5.317 /
&OBST ID='IfcFurnishingElement/Stuhl (3):Sessel:902263'
      XB=35.148,35.660,24.243,24.688,4.500,5.317 /
&OBST ID='IfcFurnishingElement/Stuhl (3):Sessel:902267'
      XB=35.148,35.660,22.643,23.088,4.500,5.317 /
&OBST ID='IfcFurnishingElement/Stuhl (3):Sessel:902271'
      XB=35.148,35.660,21.043,21.488,4.500,5.317 /
&OBST ID='IfcMember/Pfosten rechteckig:BUW_5 x 18:515034'
      XB=26.314,26.494,29.948,29.998,5.000,8.170 /
&OBST ID='IfcMember/Pfosten rechteckig:BUW_5 x 18:515038'
      XB=26.314,26.494,28.612,28.662,5.000,8.170 /
&OBST ID='IfcMember/Pfosten rechteckig:BUW_5 x 18:515041'
      XB=26.314,26.494,27.322,27.372,5.000,8.170 /
&OBST ID='IfcMember/Pfosten rechteckig:BUW_5 x 18:515086'
      XB=26.984,27.034,30.467,30.647,5.000,8.170 /
&OBST ID='IfcMember/Pfosten rechteckig:BUW_5 x 18:515090'
      XB=28.348,28.398,30.467,30.647,5.000,8.170 /
&OBST ID='IfcMember/Pfosten rechteckig:BUW_5 x 18:515093'
      XB=29.713,29.763,30.467,30.647,5.000,8.170 /
&OBST ID='IfcMember/Pfosten rechteckig:BUW_5 x 18:515095'
      XB=31.077,31.127,30.467,30.647,5.000,8.170 /
&OBST ID='IfcMember/Pfosten rechteckig:BUW_5 x 18:515096'
      XB=32.441,32.491,30.467,30.647,5.000,8.170 /
&OBST ID='IfcMember/Pfosten rechteckig:BUW_5 x 18:515097'
      XB=33.805,33.855,30.467,30.647,5.000,8.170 /
&OBST ID='IfcMember/Pfosten rechteckig:BUW_5 x 18:515098'
      XB=35.169,35.219,30.467,30.647,5.000,8.170 /
&OBST ID='IfcMember/Pfosten rechteckig:BUW_5 x 18:515099'
      XB=36.534,36.584,30.467,30.647,5.000,8.170 /
&OBST ID='IfcMember/Pfosten rechteckig:BUW_5 x 18:515100'
      XB=37.898,37.948,30.467,30.647,5.000,8.170 /
&OBST ID='IfcMember/Pfosten rechteckig:BUW_5 x 18:515101'
      XB=39.262,39.312,30.467,30.647,5.000,8.170 /
&OBST ID='IfcMember/Pfosten rechteckig:BUW_5 x 18:515102'
      XB=40.626,40.676,30.467,30.647,5.000,8.170 /
&OBST ID='IfcMember/Pfosten rechteckig:BUW_5 x 18:515103'
      XB=41.990,42.040,30.467,30.647,5.000,8.170 /
&OBST ID='IfcMember/Pfosten rechteckig:BUW_5 x 18:515104'
      XB=43.355,43.405,30.467,30.647,5.000,8.170 /
&OBST ID='IfcMember/Pfosten rechteckig:BUW_5 x 18:515105'
      XB=44.719,44.769,30.467,30.647,5.000,8.170 /
&OBST ID='IfcMember/Pfosten rechteckig:BUW_5 x 18:515106'
      XB=46.083,46.133,30.467,30.647,5.000,8.170 /
&OBST ID='IfcMember/Pfosten rechteckig:BUW_5 x 18:515107'
      XB=47.447,47.497,30.467,30.647,5.000,8.170 /
&OBST ID='IfcMember/Pfosten rechteckig:BUW_5 x 18:515108'
! ... 129 like lines cut
&OBST ID='IfcPlate/Systemelement:BUW_METALLSCHEIBE_30mm:784029'
      XB=28.358,28.388,30.847,31.032,4.500,6.635 /
&OBST ID='IfcPlate/Systemelement:BUW_METALLSCHEIBE_30mm:784224'
      XB=54.009,56.549,29.959,29.989,6.635,8.170 /
&OBST ID='IfcPlate/Systemelement:BUW_METALLSCHEIBE_30mm:784304'
      XB=53.779,53.809,16.477,18.527,6.635,8.170 /
&OBST ID='IfcPlate/Systemelement:BUW_METALLSCHEIBE_30mm:784415'
      XB=28.358,28.388,30.847,31.032,6.635,8.170 /
&OBST ID='IfcPlate/Systemelement:BUW_METALLSCHEIBE_30mm:786072'
      XB=53.624,53.824,29.959,29.989,5.000,8.170 /
&OBST ID='IfcPlate/Systemelement:BUW_METALLSCHEIBE_30mm:787098'
      XB=53.824,54.009,29.959,29.989,4.500,6.635 /
&OBST ID='IfcPlate/Systemelement:BUW_METALLSCHEIBE_30mm:787099'
      XB=53.824,54.009,29.959,29.989,6.635,8.170 /
&OBST ID='IfcPlate/Systemelement:BUW_METALLSCHEIBE_30mm:787151'
      XB=28.358,28.388,31.032,33.027,6.635,8.170 /
&OBST ID='IfcPlate/Systemelement:BUW_METALLSCHEIBE_30mm:787398'
      XB=28.358,28.388,30.647,30.847,5.000,8.170 /
&OBST ID='IfcPlate/Systemelement:Verglasung:513099'
      XB=26.429,26.459,26.017,27.322,5.050,8.120 /
&OBST ID='IfcPlate/Systemelement:Verglasung:513107'
      XB=26.444,26.984,30.502,30.532,5.050,8.120 /
&OBST ID='IfcPlate/Systemelement:Verglasung:513115'
      XB=53.479,53.509,29.999,30.517,5.050,8.120 /
&OBST ID='IfcPlate/Systemelement:Verglasung:513656'
      XB=26.429,26.459,28.662,29.948,5.050,8.120 /
&OBST ID='IfcPlate/Systemelement:Verglasung:513699'
      XB=26.429,26.459,29.998,30.517,5.050,8.120 /
&OBST ID='IfcPlate/Systemelement:Verglasung:513760'
      XB=27.034,28.348,30.502,30.532,5.050,8.120 /
&OBST ID='IfcPlate/Systemelement:Verglasung:513823'
      XB=28.398,29.713,30.502,30.532,5.050,8.120 /
&OBST ID='IfcPlate/Systemelement:Verglasung:513846'
      XB=29.763,31.077,30.502,30.532,5.050,8.120 /
&OBST ID='IfcPlate/Systemelement:Verglasung:513871'
      XB=31.127,32.441,30.502,30.532,5.050,8.120 /
&OBST ID='IfcPlate/Systemelement:Verglasung:513918'
      XB=32.491,33.805,30.502,30.532,5.050,8.120 /
&OBST ID='IfcPlate/Systemelement:Verglasung:513981'
      XB=33.855,35.169,30.502,30.532,5.050,8.120 /
&OBST ID='IfcPlate/Systemelement:Verglasung:514039'
      XB=35.219,36.534,30.502,30.532,5.050,8.120 /
&OBST ID='IfcPlate/Systemelement:Verglasung:514068'
      XB=36.584,37.898,30.502,30.532,5.050,8.120 /
&OBST ID='IfcPlate/Systemelement:Verglasung:514102'
      XB=37.948,39.262,30.502,30.532,5.050,8.120 /
&OBST ID='IfcPlate/Systemelement:Verglasung:514152'
      XB=39.312,40.626,30.502,30.532,5.050,8.120 /
&OBST ID='IfcPlate/Systemelement:Verglasung:514185'
      XB=40.676,41.990,30.502,30.532,5.050,8.120 /
&OBST ID='IfcPlate/Systemelement:Verglasung:514237'
      XB=42.040,43.355,30.502,30.532,5.050,8.120 /
&OBST ID='IfcPlate/Systemelement:Verglasung:514271'
      XB=43.405,44.719,30.502,30.532,5.050,8.120 /
&OBST ID='IfcPlate/Systemelement:Verglasung:514302'
      XB=44.769,46.083,30.502,30.532,5.050,8.120 /
&OBST ID='IfcPlate/Systemelement:Verglasung:514332'
! ... 15 like lines cut
&OBST ID='IfcRailing/Geländer:Stahl (2) - Horizontal:1074605'
      XB=13.704,20.672,22.151,22.221,4.667,9.397 /
&OBST ID='IfcRailing/Geländer:Stahl (2) - Horizontal:1074609'
      XB=13.704,20.672,20.632,20.702,4.667,9.397 /
&OBST ID='IfcRailing/Geländer:Stahl (2) - Horizontal:1074744'
      XB=12.875,20.672,20.527,20.597,4.500,5.400 /
&OBST ID='IfcRailing/Geländer:Stahl (4) - Vertikal:576142'
      XB=57.085,57.628,16.702,16.742,4.500,5.400 /
&OBST ID='IfcRailing/Geländer:Stahl (4) - Vertikal:576200'
      XB=57.085,57.628,18.162,18.202,4.500,5.400 /
&OBST ID='IfcSlab/Geschossdecke:A_DA-BB_KIES 13.0:1116574'
      XB=26.494,53.444,25.997,30.467,4.370,4.500 /
&OBST ID='IfcSlab/Geschossdecke:A_GITTERROST_2.0:1116721'
      XB=57.089,57.624,16.722,18.182,4.480,4.500 /
&OBST ID='IfcSlab/Geschossdecke:I_BB_TSD 4.0_ES 8.3_FL 0.7:1116558'
      XB=50.257,56.549,10.377,16.402,4.370,4.500 /
&OBST ID='IfcSlab/Geschossdecke:I_BB_TSD 4.0_ES 9.0:1116592'
      XB=9.220,56.549,10.377,38.877,4.370,4.500 /
&OBST ID='IfcSlab/Geschossdecke:I_DE_STB 20.0:1116748'
      XB=9.220,56.549,10.377,38.877,4.170,4.370 /
&OBST ID='IfcStairFlight/Fertigbetontreppe:Treppe:1074434 Run 1'
      XB=13.708,20.668,20.627,22.227,4.500,8.500 /
&OBST ID='IfcWall/Basiswand:I_WA_GK_12.5_BW_F90AB:481448'
      XB=33.987,34.112,10.377,16.327,4.500,8.170 /
&OBST ID='IfcWall/Basiswand:I_WA_GK_12.5_BW_F90AB:481452'
      XB=41.247,41.372,10.377,16.327,4.500,8.170 /
&OBST ID='IfcWall/Basiswand:I_WA_GK_12.5_BW_F90AB:482196'
      XB=48.507,48.632,33.177,38.877,4.500,8.170 /
&OBST ID='IfcWall/Basiswand:I_WA_GK_12.5_BW_F90AB:482200'
      XB=41.247,41.372,33.177,38.877,4.500,8.170 /
&OBST ID='IfcWall/Basiswand:I_WA_GK_12.5_BW_F90AB:482204'
      XB=33.987,34.112,33.177,38.877,4.500,8.170 /
&OBST ID='IfcWall/Basiswand:I_WA_GK_12.5_BW_F90AB:482208'
      XB=25.317,25.442,33.177,38.877,4.500,8.170 /
&OBST ID='IfcWall/Basiswand:I_WA_GK_15.0_BW_F90AB:482088'
      XB=53.675,53.825,18.527,25.477,4.500,8.170 /
&OBST ID='IfcWall/Basiswand:I_WA_GK_15.0_BW_F90AB:482092'
      XB=27.224,53.675,18.527,18.677,4.500,8.170 /
&OBST ID='IfcWall/I_WA_mobile Trennwand:I_WA_mobile Trennwand:738715'
      XB=9.640,21.187,30.307,31.507,4.500,7.670 /
&OBST ID='IfcWallStandardCase/Basiswand:A_WR_STB_20.0_MW_22.0_VS_12 ohne '
      XB=26.114,53.825,25.477,26.017,4.370,8.500 /
&OBST ID='IfcWallStandardCase/Basiswand:A_WR_STB_20.0_XPS_22.0_VS_12:4562'
      XB=8.651,57.089,38.877,39.417,4.170,8.500 /
&OBST ID='IfcWallStandardCase/Basiswand:A_WR_STB_20.0_XPS_22.0_VS_12:4563'
      XB=56.549,57.089,9.837,38.877,4.170,8.500 /
&OBST ID='IfcWallStandardCase/Basiswand:A_WR_STB_20.0_XPS_22.0_VS_12:4564'
      XB=10.173,56.549,9.837,10.377,4.170,8.500 /
&OBST ID='IfcWallStandardCase/Basiswand:A_WR_STB_20.0_XPS_22.0_VS_12:4566'
      XB=8.679,10.713,10.377,38.877,4.170,8.500 /
&OBST ID='IfcWallStandardCase/Basiswand:I_WA_GKI_17.5:482002'
      XB=55.157,56.549,12.104,12.279,4.500,7.765 /
&OBST ID='IfcWallStandardCase/Basiswand:I_WA_GKI_17.5:516366'
      XB=55.069,55.244,12.144,13.127,4.500,7.765 /
&OBST ID='IfcWallStandardCase/Basiswand:I_WA_GKI_22.5:481674'
      XB=50.675,52.415,13.127,13.352,4.500,7.765 /
&OBST ID='IfcWallStandardCase/Basiswand:I_WA_GKI_35.0:595742'
      XB=52.515,55.145,13.127,13.477,4.500,7.765 /
&OBST ID='IfcWallStandardCase/Basiswand:I_WA_GKV_22.5:595839'
      XB=56.324,56.549,10.377,12.104,4.500,7.765 /
&OBST ID='IfcWallStandardCase/Basiswand:I_WA_GK_10:481690'
      XB=52.415,52.515,10.377,16.327,4.500,7.765 /
&OBST ID='IfcWallStandardCase/Basiswand:I_WA_GK_10:481998'
      XB=55.145,55.245,13.127,16.327,4.500,7.765 /
&OBST ID='IfcWallStandardCase/Basiswand:I_WA_GK_12.5_BW_F90AB:481444'
      XB=31.037,31.162,10.377,16.327,4.500,8.170 /
&OBST ID='IfcWallStandardCase/Basiswand:I_WA_GK_12.5_BW_F90AB:481512'
      XB=45.740,48.419,12.602,12.727,4.500,8.170 /
&OBST ID='IfcWallStandardCase/Basiswand:I_WA_GK_12.5_BW_F90AB:481678'
      XB=50.550,50.675,12.239,14.414,4.500,8.170 /
&OBST ID='IfcWallStandardCase/Basiswand:I_WA_GK_12.5_BW_F90AB:481682'
      XB=50.320,50.550,14.289,14.414,4.500,8.170 /
&OBST ID='IfcWallStandardCase/Basiswand:I_WA_GK_12.5_BW_F90AB:481686'
      XB=50.195,50.320,10.377,16.477,4.500,8.170 /
&OBST ID='IfcWallStandardCase/Basiswand:I_WA_GK_12.5_BW_F90AB:481831'
      XB=50.320,50.550,12.239,12.364,4.500,8.170 /
&OBST ID='IfcWallStandardCase/Basiswand:I_WA_GK_15.0_BW_F90AB:481256'
      XB=10.394,45.589,16.327,16.477,4.500,8.170 /
&OBST ID='IfcWallStandardCase/Basiswand:I_WA_GK_15.0_BW_F90AB:481456'
      XB=45.590,45.740,10.377,16.277,4.500,8.170 /
&OBST ID='IfcWallStandardCase/Basiswand:I_WA_GK_15.0_BW_F90AB:481516'
      XB=45.740,48.419,14.827,14.977,4.500,8.170 /
&OBST ID='IfcWallStandardCase/Basiswand:I_WA_GK_15.0_BW_F90AB:482054'
      XB=50.320,56.549,16.327,16.477,4.500,8.170 /
&OBST ID='IfcWallStandardCase/Basiswand:I_WA_GK_15.0_BW_F90AB:482104'
      XB=21.187,56.549,33.027,33.177,4.500,8.170 /
&OBST ID='IfcWallStandardCase/Basiswand:I_WA_GK_15.0_BW_F90AB:781269'
      XB=48.719,50.195,16.327,16.477,6.950,8.170 /
&OBST ID='IfcWallStandardCase/Basiswand:I_WA_GK_17.5:481374'
      XB=19.599,19.774,10.377,16.327,4.500,8.170 /
&OBST ID='IfcWallStandardCase/Basiswand:I_WA_GK_17.5:481415'
      XB=26.874,27.049,10.377,16.327,4.500,8.170 /
&OBST ID='IfcWallStandardCase/Basiswand:I_WA_GK_17.5:482100'
      XB=21.187,21.362,33.177,38.877,4.500,8.170 /
&OBST ID='IfcWallStandardCase/Basiswand:I_WA_GK_18.0:482096'
      XB=38.849,39.029,18.677,25.477,4.500,8.170 /
&OBST ID='IfcWallStandardCase/Basiswand:I_WA_GK_23.75:515682'
      XB=21.187,21.424,22.477,33.027,4.500,8.170 /
&OBST ID='IfcWallStandardCase/Basiswand:I_WA_GK_8.0:521490'
      XB=27.224,27.304,18.677,25.477,4.500,8.170 /
&OBST ID='IfcWallStandardCase/Basiswand:I_WA_TWC_4.0:481930'
      XB=53.364,53.404,13.477,14.977,4.500,7.765 /
&OBST ID='IfcWallStandardCase/Basiswand:I_WA_TWC_4.0:481934'
      XB=54.254,54.294,13.477,14.977,4.500,7.765 /
&OBST ID='IfcWallStandardCase/Basiswand:I_WA_TWC_4.0:481938'
      XB=54.892,56.324,11.189,11.229,4.500,7.765 /
&OBST ID='IfcWallStandardCase/Basiswand:I_WA_TWC_4.0:481942'
      XB=54.852,54.892,10.377,12.144,4.500,7.765 /
&OBST ID='IfcWallStandardCase/Basiswand:I_WA_TWC_4.0:481946'
      XB=54.892,55.157,12.104,12.144,4.500,7.765 /
&OBST ID='IfcWallStandardCase/Basiswand:I_WA_TWC_4.0:481950'
      XB=52.515,55.145,14.977,15.017,4.500,7.765 /
&OBST ID='IfcWallStandardCase/Basiswand:I_WR_KS_11.5_F90AB:518813'
      XB=26.114,26.229,22.477,25.477,4.370,8.170 /
&OBST ID='IfcWallStandardCase/Basiswand:I_WR_KS_17.5_F90AB:518616'
      XB=24.574,26.229,22.302,22.477,4.370,8.170 /
&OBST ID='IfcWallStandardCase/Basiswand:I_WR_KS_17.5_F90AB:519003'
      XB=24.574,26.924,18.527,18.702,4.370,8.170 /
&OBST ID='IfcWallStandardCase/Basiswand:I_WR_STB_20.0_BW_F90AB:481460'
      XB=45.589,48.419,16.277,16.477,4.370,8.170 /
&OBST ID='IfcWallStandardCase/Basiswand:I_WR_STB_20.0_BW_F90AB:518475'
      XB=27.024,27.224,22.477,25.477,4.370,8.170 /
&OBST ID='IfcWallStandardCase/Basiswand:I_WR_STB_25.0_F90AB:518025'
      XB=10.079,24.324,22.227,22.477,4.370,8.170 /
&OBST ID='IfcWallStandardCase/Basiswand:I_WR_STB_25.0_F90AB:518242'
      XB=10.273,24.324,18.527,18.777,4.370,8.170 /
&OBST ID='IfcWallStandardCase/Basiswand:I_WR_STB_25.0_F90AB:518246'
      XB=24.574,26.924,21.232,21.482,4.370,8.170 /
&OBST ID='IfcWallStandardCase/Basiswand:I_WR_STB_25.0_F90AB:518254'
      XB=24.574,26.924,19.082,19.332,4.370,8.170 /
&OBST ID='IfcWallStandardCase/Basiswand:I_WR_STB_25.0_F90AB:518258'
      XB=24.324,24.574,18.527,22.477,4.370,8.170 /
&OBST ID='IfcWallStandardCase/Basiswand:I_WR_STB_30.0_BW_F90AB:481625'
      XB=48.419,48.719,11.976,16.477,4.370,8.170 /
&OBST ID='IfcWallStandardCase/Basiswand:I_WR_STB_30.0_BW_F90AB:518363'
      XB=26.924,27.224,18.527,22.477,4.370,8.170 /
&OBST ID='IfcWallStandardCase/Basiswand:I_WR_STB_38.0:785662'
      XB=26.114,53.824,30.467,30.847,4.370,5.000 /
&OBST ID='IfcWallStandardCase/Basiswand:I_WR_STB_38.0:785691'
      XB=26.114,26.494,26.017,30.467,4.370,5.000 /
&OBST ID='IfcWallStandardCase/Basiswand:I_WR_STB_38.0:785789'
      XB=53.444,53.824,26.017,30.467,4.370,5.000 /
&OBST ID='IfcWindow/BUW_OBERLICHT_2_SCHEIBEN:BUW_OBERLICHT_2_SCHEIBEN'
      XB=36.438,38.778,18.527,18.557,7.060,8.070 /
&OBST ID='IfcWindow/BUW_OBERLICHT_2_SCHEIBEN:BUW_OBERLICHT_2_SCHEIBEN_B-H'
      XB=34.347,36.307,18.527,18.557,7.060,8.070 /
&OBST ID='IfcWindow/BUW_OBERLICHT_4_SCHEIBEN:BUW_OBERLICHT_4_SCHEIBEN_B-H'
      XB=29.497,33.802,18.527,18.557,7.060,8.070 /
&OBST ID='IfcWindow/Fenster 1-flg:BUW_Fenster 1-flg_1.46 / 0.73:968987'
      XB=50.954,52.414,9.807,10.407,7.315,8.055 /
&OBST ID='IfcWindow/Fenster 1-flg:BUW_Fenster 1-flg_1.46 / 0.73:969047'
      XB=52.514,53.974,9.807,10.407,7.315,8.055 /
&OBST ID='IfcWindow/Fenster 1-flg:BUW_Fenster 1-flg_1.46 / 0.73:969100'
      XB=56.519,57.119,25.827,27.287,7.315,8.055 /
&OBST ID='IfcWindow/Fenster 1-flg:BUW_Fenster 1-flg_1.46 / 0.73:969130'
      XB=56.519,57.119,31.417,32.877,7.315,8.055 /
&OBST ID='IfcWindow/Fenster 1-flg:BUW_Fenster 1-flg_1.46 / 0.73:969224'
      XB=41.372,42.832,38.847,39.447,7.315,8.055 /
&OBST ID='IfcWindow/Fenster 1-flg:BUW_Fenster 1-flg_1.46 / 0.73:969786'
      XB=34.112,35.572,38.847,39.447,7.315,8.055 /
&OBST ID='IfcWindow/Fenster 1-flg:BUW_Fenster 1-flg_1.46 / 0.73:970572'
      XB=9.717,10.393,17.040,18.530,7.315,8.055 /
&OBST ID='IfcWindow/Fenster 1-flg:BUW_Fenster 1-flg_1.46 / 1.20:606803'
      XB=32.527,33.987,38.847,39.447,5.530,6.740 /
&OBST ID='IfcWindow/Fenster 1-flg:BUW_Fenster 1-flg_1.46 / 1.20:607529'
      XB=48.719,50.179,9.807,10.407,5.530,6.740 /
&OBST ID='IfcWindow/Fenster 1-flg:BUW_Fenster 1-flg_1.46 / 1.20:607576'
      XB=50.334,51.794,9.807,10.407,5.530,6.740 /
&OBST ID='IfcWindow/Fenster 1-flg:BUW_Fenster 1-flg_1.46 / 1.20:607839'
      XB=9.748,10.423,16.457,17.947,5.530,6.740 /
&OBST ID='IfcWindow/Fenster 1-flg:BUW_Fenster 1-flg_1.46 / 1.20:607857'
      XB=9.523,10.198,20.745,22.235,5.530,6.740 /
&OBST ID='IfcWindow/Fenster 1-flg:BUW_Fenster 1-flg_1.46 / 1.20:608630'
      XB=46.959,48.419,9.807,10.407,5.530,6.740 /
&OBST ID='IfcWindow/Fenster 2-flg:BUW_Fenster 2-flg_2 x 1.4125 / 1.20:607'
      XB=31.162,33.987,9.807,10.407,5.530,6.740 /
&OBST ID='IfcWindow/Fenster 2-flg:BUW_Fenster 2-flg_2 x 1.46 / 0.73:61515'
      XB=34.349,37.269,25.447,26.047,7.315,8.055 /
&OBST ID='IfcWindow/Fenster 2-flg:BUW_Fenster 2-flg_2 x 1.46 / 0.73:96785'
      XB=27.114,30.034,9.807,10.407,7.315,8.055 /
&OBST ID='IfcWindow/Fenster 2-flg:BUW_Fenster 2-flg_2 x 1.46 / 0.73:96869'
      XB=41.372,44.292,9.807,10.407,7.315,8.055 /
&OBST ID='IfcWindow/Fenster 2-flg:BUW_Fenster 2-flg_2 x 1.46 / 0.73:96934'
      XB=48.632,51.552,38.847,39.447,7.315,8.055 /
&OBST ID='IfcWindow/Fenster 2-flg:BUW_Fenster 2-flg_2 x 1.46 / 0.73:96943'
      XB=45.587,48.507,38.847,39.447,7.315,8.055 /
&OBST ID='IfcWindow/Fenster 2-flg:BUW_Fenster 2-flg_2 x 1.46 / 0.73:96968'
      XB=38.327,41.247,38.847,39.447,7.315,8.055 /
&OBST ID='IfcWindow/Fenster 2-flg:BUW_Fenster 2-flg_2 x 1.46 / 0.73:96996'
      XB=31.067,33.987,38.847,39.447,7.315,8.055 /
&OBST ID='IfcWindow/Fenster 2-flg:BUW_Fenster 2-flg_2 x 1.46 / 0.73:97016'
      XB=21.424,24.344,38.847,39.447,7.315,8.055 /
&OBST ID='IfcWindow/Fenster 2-flg:BUW_Fenster 2-flg_2 x 1.46 / 0.73:97046'
      XB=9.551,10.303,18.748,21.695,7.315,8.055 /
&OBST ID='IfcWindow/Fenster 2-flg:BUW_Fenster 2-flg_2 x 1.46 / 1.20:60638'
      XB=22.397,25.317,38.847,39.447,5.530,6.740 /
&OBST ID='IfcWindow/Fenster 2-flg:BUW_Fenster 2-flg_2 x 1.46 / 1.20:60746'
      XB=42.669,45.589,9.807,10.407,5.530,6.740 /
&OBST ID='IfcWindow/Fenster 2-flg:BUW_Fenster 2-flg_2 x 1.46 / 1.20:60771'
      XB=28.117,31.037,9.807,10.407,5.530,6.740 /
&OBST ID='IfcWindow/Fenster 2-flg:BUW_Fenster 2-flg_2 x 1.46 / 1.20:60783'
      XB=9.832,10.584,13.391,16.339,5.530,6.740 /
&OBST ID='IfcWindow/Fenster 2-flg:BUW_Fenster 2-flg_2 x 1.46 / 1.20:60789'
      XB=9.357,10.109,22.457,25.405,5.530,6.740 /
&OBST ID='IfcWindow/Fenster 2-flg:BUW_Fenster 2-flg_2 x 1.46 / 1.20:61571'
      XB=34.964,37.884,25.447,26.047,5.530,6.740 /
&OBST ID='IfcWindow/Fenster 2-flg:BUW_Fenster 2-flg_2 x 1.46 / 1.20:61577'
      XB=49.864,52.784,25.447,26.047,5.530,6.740 /
&OBST ID='IfcWindow/Fenster 3-flg:BUW_Fenster 3-flg_3 x 1.46 / 0.73:61490'
      XB=29.369,33.749,25.447,26.047,7.315,8.055 /
&OBST ID='IfcWindow/Fenster 3-flg:BUW_Fenster 3-flg_3 x 1.46 / 0.73:61502'
      XB=41.609,45.989,25.447,26.047,7.315,8.055 /
&OBST ID='IfcWindow/Fenster 3-flg:BUW_Fenster 3-flg_3 x 1.46 / 0.73:61507'
! ... 37 like lines cut

--- Free text from Blender Text: <FDS APPENDIX>

&SURF ID='CONCRETE_COMPONENT' MATL_ID='CONCRETE', THICKNESS=0.2, DEFAULT=T RGB=204,204,204 /
&MATL ID='CONCRETE' CONDUCTIVITY=1.6 DENSITY=2400 SPECIFIC_HEAT=0.75 /
&RAMP ID='ramp_fire' T=0 F=0/
&RAMP ID='ramp_fire' T=300 F=1/

&TAIL /
